14
MoSn13_4 -2853.891679562 29869.974 28.10 MoSn13_3n x MoSn13_1
  Mo    -0.0004950633    -0.1463780870    -0.1494439175
  Sn     2.7090273926     1.6028450371    -0.8028400832
  Sn    -1.5256331366     1.6953533709     1.9565960732
  Sn     1.4417736863    -2.8957568434     0.1022627288
  Sn    -0.0028384687    -1.0511794939     2.4626871528
  Sn    -1.4046372241    -2.8919849051     0.1008016214
  Sn     1.5160419786     1.6977539081     1.9574646730
  Sn    -0.0053056753     2.9157950014    -0.3790997223
  Sn     2.3008043267    -1.0306282311    -1.9126485896
  Sn    -0.0100291904     0.8966191027    -2.6987438314
  Sn     3.0643252593    -0.6555179290     1.0337265931
  Sn    -3.0618349841    -0.6759594173     1.0380498113
  Sn    -2.7125076154     1.5860783425    -0.7970121332
  Sn    -2.3086912854    -1.0470398558    -1.9118003764
14
MoSn13_1 -2853.891658040 29868.986 29.39 Population MoSn13_11
  Mo    -0.0001099751    -0.1530990669    -0.1539910487
  Sn     2.3156627353    -1.0419115459    -1.9127531462
  Sn    -2.7035758314     1.5953201768    -0.7952643181
  Sn    -3.0643138755    -0.6592653286     1.0509759364
  Sn    -2.3259026141    -1.0376935834    -1.9061396039
  Sn     2.7053768236     1.5887991913    -0.8036227633
  Sn    -1.4259288774    -2.8868592273     0.1030653485
  Sn     0.0054313928    -1.0473958312     2.4663022634
  Sn    -0.0062447631     0.8773453039    -2.7022564173
  Sn    -1.5074629110     1.6999236867     1.9548853930
  Sn     1.4181661071    -2.8891222017     0.1003722541
  Sn     0.0024469904     2.9206620411    -0.3940035664
  Sn     3.0661884901    -0.6661355189     1.0435759997
  Sn     1.5202663083     1.6994319040     1.9488536688
14
MoSn13_3p -2853.891549180 29870.549 26.15 MoSn13_1 x MoSn13_1
  Mo    -0.0073737635    -0.1427658835    -0.1426566739
  Sn     0.0380876426    -1.0509860262     2.4669603490
  Sn    -1.4556837510    -2.8976236960     0.1245322455
  Sn     2.6978236017     1.5866904495    -0.7988325280
  Sn     2.3151059357    -1.0491453685    -1.9129147194
  Sn     0.0251035523     0.8706853526    -2.7041029021
  Sn     1.3915810192    -2.8828269686     0.0944099920
  Sn    -1.5129050455     1.7013579354     1.9490740933
  Sn     1.5246425459     1.7007636356     1.9611535085
  Sn    -3.0721472894    -0.6428690432     1.0350907702
  Sn     3.0635346447    -0.6743744225     1.0354941840
  Sn    -2.2917086955    -1.0392259103    -1.9039335557
  Sn    -0.0015583757     2.9193217107    -0.3904372509
  Sn    -2.7145020216     1.6009982353    -0.8138375125
14
MoSn13_3n -2853.891476825 29874.980 26.64 MoSn13_1 x MoSn13_1
  Mo    -0.0106412204    -0.1394402181     0.1400405890
  Sn     2.2927300818    -1.0387282406     1.9228708465
  Sn    -1.4200981360    -2.8847997763    -0.1213533398
  Sn     1.5319394864     1.7138459957    -1.9436170159
  Sn     0.0752771798    -1.0548372930    -2.4676391473
  Sn    -1.5037892534     1.6879930616    -1.9625024167
  Sn     1.4273430662    -2.8912695589    -0.0950695123
  Sn    -0.0116339839     0.8573726014     2.7082770066
  Sn     2.6850860192     1.6024691151     0.8237747746
  Sn    -2.3284595100    -1.0468549434     1.8888106299
  Sn     3.0653723234    -0.6506036389    -1.0161344159
  Sn    -3.0666972357    -0.6630538494    -1.0587250551
  Sn    -0.0153290403     2.9195982151     0.3947375287
  Sn    -2.7210997773     1.5883085297     0.7865295278
14
MoSn13_2 -2853.878011270 29752.990 29.55 Population MoSn13_10
  Mo    -0.0000447949    -0.0000922159     0.2009808770
  Sn     2.8514906045    -0.0578123420    -1.1505233426
  Sn    -2.8541375978     0.0578243193    -1.1490822189
  Sn    -0.0510216668    -2.4240732308     1.6078722046
  Sn    -1.4156571517     2.6228959916    -1.1016757201
  Sn     2.7236563523     1.3809506840     1.4515314499
  Sn    -2.6555515706     1.4891833970     1.4462069881
  Sn     1.4160994995    -2.6227754757    -1.1037686064
  Sn     1.5403533956     2.5638414653    -1.0938870226
  Sn    -0.0027602827     0.0000906404    -2.5239454493
  Sn    -2.7217242526    -1.3805330357     1.4540104086
  Sn     0.0528986015     2.4223960862     1.6092370816
  Sn     2.6566605947    -1.4889395605     1.4457358375
  Sn    -1.5402617310    -2.5629567231    -1.0926924874
