6
MoSn5_1 -1139.514256934 6071.780 84.70 Population MoSn5_12
  Mo    -0.0003844396    -0.0004160136     1.6048306499
  Sn     2.1331982568     0.5095437003     0.0787284634
  Sn     0.0001408999     0.0002048492    -1.9192371945
  Sn     0.5097904849    -2.1331767833     0.0785279492
  Sn    -2.1335112862    -0.5094153932     0.0782879701
  Sn    -0.5092339159     2.1332596407     0.0788621619
6
MoSn5_3 -1139.467855405 5765.755 36.80 MoSn5_2 x MoSn5_2
  Mo    -0.0824580510    -0.6854744768    -0.6451534124
  Sn     0.7270397889    -0.8996544804     1.8165354809
  Sn    -1.6405686414     1.5074332677     0.2726396135
  Sn    -2.6094743462    -1.0675598524    -0.4948042649
  Sn     1.0895872896     1.8141062191    -0.1253859968
  Sn     2.5158739600    -0.6688506771    -0.8238314202
6
MoSn5_4 -1139.467847012 5765.439 30.99 MoSn5_1 x MoSn5_1
  Mo    -0.0820978855    -0.6866192619    -0.6454789648
  Sn     2.5159279021    -0.6585634373    -0.8320365554
  Sn     1.0867880647     1.8126848369    -0.1124878974
  Sn    -2.6095665004    -1.0679691513    -0.4909168131
  Sn    -1.6453903169     1.5078773836     0.2681395919
  Sn     0.7343387360    -0.9074103701     1.8127806387
6
MoSn5_2 -1139.467827709 5765.303 37.06 Population MoSn5_11
  Mo    -0.0806620813    -0.6835420899    -0.6480930128
  Sn     0.7375841276    -0.9065595298     1.8102494473
  Sn    -1.6502802752     1.5047454626     0.2771211474
  Sn    -2.6045548353    -1.0740351987    -0.4932180803
  Sn     1.0813526771     1.8181761528    -0.1215199348
  Sn     2.5165603872    -0.6587847969    -0.8245395668
