5
MoSn4_2 -925.201179359 4108.859 63.77 Population MoSn4_16
  Mo    -0.0004859769    -0.6849951685     1.2733666994
  Sn    -0.0073099984     1.6474483764    -0.7286595432
  Sn     2.2355322081     0.2849730821     0.3124948148
  Sn     0.0156113408    -1.5156158912    -1.1626598670
  Sn    -2.2433475735     0.2681896013     0.3054578959
5
MoSn4_1 -925.201168423 4110.776 64.52 Population MoSn4_13
  Mo    -0.0004586978    -0.6884866445    -1.2717677891
  Sn     0.0033743234    -1.5091095327     1.1647803574
  Sn    -2.2410534928     0.2732481985    -0.3073330140
  Sn     2.2396864617     0.2767094010    -0.3089941297
  Sn    -0.0015485945     1.6476385777     0.7233145754
5
MoSn4_3 -925.201135447 4113.132 61.55 Population MoSn4_6
  Mo    -0.0004019669    -0.6900718551     1.2732151948
  Sn     2.2370911521     0.2823120712     0.3073536417
  Sn     0.0198989047    -1.5017848155    -1.1663560559
  Sn    -2.2445130583     0.2592901347     0.2996457795
  Sn    -0.0120750315     1.6502544647    -0.7138585601
5
MoSn4_6 -925.201129226 4109.697 61.46 MoSn4_3 x MoSn4_3
  Mo    -0.0019083023    -0.6877824755    -1.2731340807
  Sn     2.2379610124     0.2734232936    -0.3077163692
  Sn     0.0037575074     1.6511161897     0.7232799555
  Sn    -2.2391827029     0.2769613795    -0.3057493728
  Sn    -0.0006275147    -1.5137183872     1.1633198672
5
MoSn4_4 -925.151825208 3964.895 21.89 Population MoSn4_2
  Mo    -1.5101656711    -0.0021461840    -1.1943487720
  Sn     0.4696019766    -1.4381889700    -0.2518541453
  Sn     0.4687759704     1.4369928347    -0.2557284812
  Sn     2.8017583177     0.0012877140     0.5004898703
  Sn    -2.2299705935     0.0020546053     1.2014415283
