15
MoSn14_1 -3068.190867690 33959.027 25.12 Population MoSn14_13
  Mo    -0.0000631613    -0.1066158149    -0.0003970885
  Sn     1.4446286479    -2.3452942925    -1.4940707255
  Sn    -1.9688494819     0.3819911653    -2.4194858486
  Sn     1.9659923494     0.3765702884    -2.4233037555
  Sn     1.9665064359     0.3816712629     2.4198938756
  Sn     3.3474376608    -0.6284124127    -0.0012443234
  Sn    -1.4532023377    -2.3426751814    -1.4982140430
  Sn    -1.4476750610    -2.3439498825     1.4954686025
  Sn    -2.4935041230     2.1474503993     0.0026465555
  Sn     0.0005760732     2.4589980559    -1.6403982474
  Sn     0.0023550874     2.4633163703     1.6367299038
  Sn     1.4497074488    -2.3434735377     1.4986065344
  Sn    -1.9618020141     0.3805836541     2.4233802572
  Sn    -3.3477930273    -0.6252393813     0.0040189970
  Sn     2.4956855029     2.1450793068    -0.0036306943
15
MoSn14_8 -3068.190694805 33955.075 22.43 MoSn14_6n x MoSn14_6p
  Mo    -0.0001969111    -0.0995554560     0.0039674773
  Sn    -0.0205138621     2.4682032654     1.6322038451
  Sn     2.4817209760     2.1610912394    -0.0092427514
  Sn     1.9561058477     0.3781176626    -2.4252079081
  Sn     1.4721873135    -2.3318820540     1.5074420313
  Sn    -1.4282062438    -2.3456963131     1.5029706873
  Sn    -3.3368017961    -0.6486086262    -0.0039511266
  Sn    -1.9583639655     0.3597397296    -2.4237431558
  Sn    -2.5148093355     2.1326877271    -0.0068196223
  Sn    -1.4331722425    -2.3618500230    -1.4923495434
  Sn    -1.9750840967     0.3742415022     2.4205181985
  Sn     1.9578130972     0.3995910754     2.4204809884
  Sn     1.4646895703    -2.3439106377    -1.4843335011
  Sn    -0.0156611765     2.4614635105    -1.6426044474
  Sn     3.3502928250    -0.6036326023     0.0006688282
15
MoSn14_6p -3068.183170831 34025.720 20.43 Population c
  Mo    -0.0036596511    -0.0009064894     0.0128404145
  Sn     2.2218525173     1.5331860340    -1.6946211933
  Sn     0.7443575280    -0.0173442868     2.7004863477
  Sn     2.2284796922    -1.5057917373    -1.7035123413
  Sn    -0.1639481909    -2.9912722042    -1.0988762056
  Sn    -2.6894025695    -1.5750801704    -1.0427983432
  Sn    -2.7005758488     1.5799157210    -1.0235421259
  Sn    -0.1838287727     2.9991707518    -1.0714146882
  Sn    -1.3222067798     2.3990984592     1.5726353224
  Sn    -0.6703783795     0.0250312994    -2.6992201793
  Sn    -2.8587316473    -0.0193814205     1.5017033349
  Sn    -1.3179386138    -2.4293444059     1.5428059571
  Sn     1.7654515904    -2.4812674059     1.1719527938
  Sn     3.1971299439     0.0072650318     0.6380948479
  Sn     1.7533991815     2.4767208232     1.1934660586
15
MoSn14_7 -3068.183139762 34019.035 19.48 MoSn14_1 x MoSn14_2
  Mo    -0.0051611462    -0.0020590308    -0.0241880166
  Sn    -2.6909928543    -1.5798779279     1.0370130029
  Sn     2.2089514821    -1.5080684458     1.7125558201
  Sn     1.7669359631     2.4762852138    -1.1640173510
  Sn    -0.2032689102     3.0139510475     1.0649124949
  Sn    -0.6827721739     0.0240561874     2.6899976315
  Sn    -1.3014689159    -2.3996862075    -1.5563063766
  Sn    -2.8968196024    -0.0251841929    -1.5049747966
  Sn     3.2174040296     0.0121406558    -0.6134718487
  Sn     2.1927927703     1.5238964862     1.7190495639
  Sn     0.7972865608    -0.0010046181    -2.6990736148
  Sn    -2.7057211472     1.5751861072     1.0069817701
  Sn    -1.3063978708     2.3696432318    -1.5870571853
  Sn     1.7779703655    -2.4704998300    -1.1681136641
  Sn    -0.1687385505    -3.0087786766     1.0866925704
15
MoSn14_6n -3068.183121475 34019.700 24.68 Population c
  Mo    -0.0032890950    -0.0000618724     0.0089394955
  Sn    -2.6692923271    -1.5817241227    -1.0805711715
  Sn     0.6415575386    -0.0176737110     2.7130394231
  Sn    -2.6684035113     1.5807911209    -1.0835237887
  Sn    -0.1452671024     3.0036873633    -1.0738668133
  Sn     2.2641737556     1.5361532738    -1.6555554939
  Sn     2.2554806035    -1.5179839124    -1.6699575038
  Sn    -0.1485271020    -3.0029103302    -1.0838153425
  Sn     1.7429941197    -2.4839167428     1.2026992536
  Sn    -0.5879263548     0.0045785216    -2.7096701764
  Sn     3.1718077296     0.0003860396     0.6929663889
  Sn     1.7311188108     2.4800306402     1.2195175015
  Sn    -1.3609744436     2.4296668390     1.5401964450
  Sn    -2.8716428664    -0.0010247679     1.4426478334
  Sn    -1.3518097553    -2.4299983391     1.5369539492
15
MoSn14_2 -3068.183093916 34022.823 22.46 Population MoSn14_15np
  Mo    -0.0035818848    -0.0058774963     0.0115982671
  Sn    -0.6861874325     0.0161137885    -2.6926532520
  Sn     3.2035198060     0.0888383105     0.6305633728
  Sn    -0.0852306432    -2.9944659556    -1.0900373380
  Sn    -2.7468411690     1.5191366079    -1.0053073035
  Sn     2.1663586925     1.5657886900    -1.7162125905
  Sn     1.8285772319    -2.4315712953     1.1857819309
  Sn     2.2698103875    -1.4683367119    -1.6985161421
  Sn    -0.2669350198     2.9935129007    -1.0721008244
  Sn    -1.2526809968    -2.4480439657     1.5487859201
  Sn    -2.6536326705    -1.6452449043    -1.0476829089
  Sn    -2.8695553178    -0.0962435325     1.4989590956
  Sn     0.7529020133     0.0272655202     2.6959615227
  Sn    -1.3645746545     2.3539389624     1.5850612262
  Sn     1.7080516577     2.5251890813     1.1657990239
15
MoSn14_3 -3068.183077164 34022.400 22.00 Population MoSn14_2
  Mo    -0.0049624422    -0.0047011376    -0.0141545228
  Sn     0.7342222970     0.0135866830    -2.6986886593
  Sn     1.8216355817    -2.4366399362    -1.1875280116
  Sn    -1.2719278603    -2.4597341769    -1.5358400246
  Sn     3.1986948936     0.0864047811    -0.6409728911
  Sn    -2.8686129571    -0.0965242101    -1.4880348890
  Sn    -1.3659878686     2.3539937248    -1.5879239762
  Sn     1.7075030987     2.5209999805    -1.1768999012
  Sn    -0.6672041590     0.0291892609     2.6943080638
  Sn    -2.6509187005    -1.6370954487     1.0650976552
  Sn    -2.7418003003     1.5262149684     1.0109392567
  Sn    -0.0818465082    -2.9890155885     1.0937374599
  Sn    -0.2591680711     2.9979253514     1.0630603787
  Sn     2.1731086944     1.5645972425     1.7093529889
  Sn     2.2772643020    -1.4692014946     1.6935470725
15
MoSn14_5n -3068.166120307 33728.335 9.06 Population MoSn14_17nn
  Mo    -0.0000611539    -0.0007212707     0.0475559090
  Sn    -1.5105097500    -0.0094710388    -2.7077453064
  Sn     1.8309081975    -2.2673264021    -1.0217458286
  Sn    -1.8207166567     2.2733701669    -1.0175545405
  Sn     0.0150037642    -3.3790443458     0.9032148306
  Sn    -0.0086184750     3.3513583871     0.9322528843
  Sn     1.4772860030     0.0133941988    -2.7053283855
  Sn    -1.8667676661    -1.4149592416     2.0019386442
  Sn     1.8209321161     2.2970802303    -1.0179000999
  Sn     1.9067249540    -1.4159722875     1.9878927198
  Sn    -3.4367799688    -0.0030837382    -0.1865469839
  Sn     3.4364093908     0.0196802383    -0.2049406556
  Sn    -1.9175602023     1.4091263185     2.0005115509
  Sn     1.8975046895     1.4087951349     1.9942562539
  Sn    -1.8237552423    -2.2822263501    -1.0058609922
15
MoSn14_5p -3068.166099819 33734.176 9.18 Population MoSn14_17nn
  Mo    -0.0002659198    -0.0009893253    -0.0561581150
  Sn     1.4942281841    -0.0058266430     2.7079104180
  Sn    -1.8267225400    -2.2773940753     1.0173224684
  Sn     1.8335049813     2.2700019838     1.0128723600
  Sn    -0.0162251837    -3.3516526435    -0.9369451889
  Sn     0.0123626400     3.3652500934    -0.9139881346
  Sn    -1.4852758481     0.0036408975     2.7094743766
  Sn     1.9023786065    -1.4160202834    -1.9945952090
  Sn    -1.8124853594     2.2834801832     1.0172504531
  Sn    -1.9140636433    -1.3991641138    -1.9933124889
  Sn     3.4368404662    -0.0217088226     0.2001465203
  Sn    -3.4366593394     0.0085510483     0.2030355103
  Sn     1.9057350524     1.4087008768    -1.9944602060
  Sn    -1.8958712930     1.4243145311    -1.9935671369
  Sn     1.8025191963    -2.2911837072     1.0150143726
15
MoSn14_4 -3068.166063913 33732.083 8.00 Population MoSn14_17p
  Mo    -0.0000502881    -0.0026725305     0.0491135092
  Sn     1.4888883445     0.0159101470    -2.7071250332
  Sn    -1.8405062616     2.2617565197    -1.0175261031
  Sn     1.8391462797    -2.2614958447    -1.0198787714
  Sn    -0.0234586007     3.3663672447     0.9047067115
  Sn     0.0248730107    -3.3663144117     0.9050325243
  Sn    -1.4920510843    -0.0143595351    -2.7069174797
  Sn     1.8683901353     1.4193426691     2.0001856225
  Sn    -1.8187892187    -2.2936394405    -1.0127910236
  Sn    -1.9089230532     1.4081707178     1.9959793066
  Sn     3.4398240779     0.0246226781    -0.1874244603
  Sn    -3.4401522343    -0.0245094992    -0.1850566492
  Sn     1.9115717249    -1.4079644174     1.9945137875
  Sn    -1.8681954133    -1.4195954521     2.0002827170
  Sn     1.8194325812     2.2943811549    -1.0130946581
