8
MoSn7_1 -1568.096401985 10517.114 39.43 Population MoSn7_11
  Mo    -0.1688450520    -0.0005871038     1.3011491086
  Sn    -2.8358547086    -0.0002510126     0.9845229877
  Sn     2.8291687086     0.0027401463     0.4361587460
  Sn     0.9271968112     0.0002245505    -1.7702183340
  Sn    -1.4280267153     1.6318618689    -0.8865589968
  Sn    -1.4261465733    -1.6352227235    -0.8824740980
  Sn     1.0486553572     2.2670279063     0.4094354132
  Sn     1.0538521722    -2.2657936320     0.4079851733
8
MoSn7_4 -1568.096342036 10516.420 39.02 MoSn7_1 x MoSn7_1
  Mo    -0.1718789847    -0.0011703048    -1.2948793809
  Sn    -1.4329815418     1.6348857655     0.8802439921
  Sn     2.8345696524     0.0059085006    -0.4250127074
  Sn     0.9221920548     0.0008867312     1.7671548841
  Sn    -2.8410819516    -0.0083205934    -0.9782244609
  Sn    -1.4220598780    -1.6358899504     0.8811768315
  Sn     1.0619855430    -2.2645469853    -0.4142319798
  Sn     1.0492551059     2.2682468365    -0.4162271787
8
MoSn7_2 -1568.076302446 10025.114 11.54 Population MoSn7_5
  Mo    -0.0002846625    -0.2273150347    -0.0131988681
  Sn     2.4423990749     1.1469766465     0.1250863326
  Sn     2.0967981813    -1.8256551875    -0.1880942294
  Sn    -2.4393382310     1.1521743080     0.1259791406
  Sn     0.0031567088     2.6400037728     0.2378871962
  Sn    -0.0010838182    -0.2070105188    -2.5998970114
  Sn    -2.1009312076    -1.8220360625    -0.1877304723
  Sn    -0.0007160457    -0.8571379237     2.4999679118
8
MoSn7_3 -1568.068150613 10227.916 21.05 Population MoSn7_16
  Mo    -0.5677081596    -0.0100421259    -0.7086028456
  Sn     0.1320188869    -1.5686037027     1.4470094336
  Sn     2.6111846912     0.0103644988     0.9473198751
  Sn    -2.7774982478     1.4281325606    -0.2065912500
  Sn     1.6159958977     1.4883917974    -1.3622612608
  Sn     0.1456533737     1.6210827616     1.3995959573
  Sn     1.6175036218    -1.5349892074    -1.3175766803
  Sn    -2.7771500640    -1.4343365824    -0.1988932293
