4
MoSn3_1 -710.924243327 2587.701 84.27 Population MoSn3_13
  Mo    -0.0090422255    -0.0016287881     1.3762199729
  Sn     0.8281489361     1.5768579794    -0.4553589669
  Sn     0.9667716154    -1.4963956145    -0.4566463800
  Sn    -1.7858783259    -0.0788335768    -0.4642146260
4
MoSn3_2 -710.861795062 2483.012 51.87 Population MoSn3_12
  Mo    -0.0014736567    -1.3771954281    -0.0001375788
  Sn    -2.2517748496    -0.0816325393     0.0001142201
  Sn     2.2510836884    -0.0838985298     0.0001142669
  Sn     0.0021648178     1.5427264972    -0.0000909081
