10
MoSn9_1 -1996.714375757 16086.497 51.06 Population MoSn9_13p
  Mo    -0.0007673873    -0.0006132985    -0.9073612130
  Sn    -2.6359228825     0.5426418135    -1.2636571568
  Sn    -0.9020027783     2.7180867842    -0.0785836363
  Sn     0.5459823216    -1.6468275011     1.6428007419
  Sn     0.8461396088    -2.5540149728    -1.2638797248
  Sn    -1.7018465119     0.3509504350     1.6422787880
  Sn    -1.9010367269    -2.1403400657    -0.0739889015
  Sn     2.8052586659    -0.5788948426    -0.0727566992
  Sn     1.1542021955     1.3030777698     1.6405568739
  Sn     1.7899934949     2.0059338781    -1.2654090722
10
MoSn9_2 -1996.691179831 15947.595 20.19 Population MoSn9_12
  Mo    -0.0619377299    -0.0106948572    -0.8019639629
  Sn     0.4405888397     2.3323669809     0.7720736784
  Sn     2.2785838678     0.0163297497     1.4128280625
  Sn    -2.3358558045    -1.5015183463     0.2942640427
  Sn    -2.3280994126     1.5173846660     0.2465637391
  Sn     0.4321729691    -2.3102073270     0.8348435043
  Sn    -0.7377812698     0.0347634526     2.3378907081
  Sn     2.2848755609     1.4050428549    -1.3938166836
  Sn     2.2821732955    -1.4483880877    -1.3532425042
  Sn    -2.2547203162    -0.0350790860    -2.3494405844
10
MoSn9_3 -1996.665157820 15841.194 26.30 MoSn9_1 x MoSn9_1
  Mo    -0.5871261412    -0.5693207012    -0.7882740191
  Sn    -3.2729604130    -0.7773923481    -0.6280057902
  Sn    -2.2133831826     1.9281113545    -0.3861781820
  Sn     0.0523380872     1.7173391638     1.3955140073
  Sn     0.5753991145    -2.9885631794    -0.5896911765
  Sn    -1.5781469593    -0.6952212995     1.8210611927
  Sn     1.3640599557    -1.1516687006     1.5912343862
  Sn     2.2579129744    -0.7059309614    -1.3294641982
  Sn     2.8503027905     1.4579057707     0.5531966778
  Sn     0.5516037740     1.7847409013    -1.6393928980
10
MoSn9_4 -1996.611495212 15023.426 17.07 MoSn9_3 x MoSn9_3
  Mo    -1.6809555925    -0.3175537986     0.6017783899
  Sn    -1.7324820060     1.9486423266    -0.8055325705
  Sn     0.3286344663    -0.4152170373    -1.2221692477
  Sn     3.4216321223     0.2818806358     1.2024434449
  Sn    -4.1897196776     0.5200546910     0.7076454959
  Sn     0.8797545164     1.8947849276     0.7087776093
  Sn     0.7520702976    -0.9689246229     1.6881600385
  Sn    -3.2504479104    -1.8685849844    -0.7976007007
  Sn     2.8034195022     0.9967342945    -1.6289480264
  Sn     2.6680942816    -2.0718164323    -0.4545544331
