9
MoSn8_6 -1783.070236036 13049.411 47.97 Build 3D scale=1
  Mo    -0.0024189520    -0.0000381538     1.1098738369
  Sn    -2.3889865213     1.4712955833     0.9033317712
  Sn    -2.3930867664    -1.4693153279     0.9021995652
  Sn     2.3875070879    -1.4729680110     0.9041453171
  Sn     2.3913989749     1.4672971924     0.9051876117
  Sn     0.0026430326     2.3307050610    -0.6689255944
  Sn    -1.6253993405     0.0025958425    -1.6936738239
  Sn     1.6301622935     0.0002172286    -1.6908277368
  Sn    -0.0018198086    -2.3297894150    -0.6713109470
9
MoSn8_10 -1783.070151799 13047.660 47.37 MoSn8_5 x MoSn8_3
  Mo    -0.0018955037    -0.0010167046    -1.1087682051
  Sn     1.6275974885    -0.0008444319     1.6931775002
  Sn     0.0001945322    -2.3301180545     0.6698456937
  Sn    -2.3922118752    -1.4712515083    -0.9015864775
  Sn     0.0024277482     2.3308327941     0.6727188152
  Sn     2.3884467331     1.4690432863    -0.9067563127
  Sn    -2.3882602793     1.4708898358    -0.9073506704
  Sn    -1.6274677193     0.0025175898     1.6929469425
  Sn     2.3911688756    -1.4700528068    -0.9042272860
9
MoSn8_2 -1783.070115083 13049.111 47.54 Build 2D scale=1
  Mo    -0.0000625292    -0.0000001699     1.1105211125
  Sn     0.0019384792    -2.3308171234    -0.6673293088
  Sn    -2.3920989506     1.4686423137     0.9026660816
  Sn     2.3934739909    -1.4682469407     0.9008741247
  Sn    -1.6265153039    -0.0012688633    -1.6928728601
  Sn     2.3878814653     1.4717716053     0.9055696385
  Sn    -2.3898353722    -1.4717279617     0.9034376174
  Sn    -0.0014627433     2.3306583206    -0.6702234799
  Sn     1.6266809639     0.0009888194    -1.6926429260
9
MoSn8_13 -1783.067808539 12941.609 31.23 MoSn8_10 x MoSn8_1
  Mo    -0.0009235678    -0.0009429894    -1.0325328159
  Sn     0.0016202272     1.6432137337     1.3332487049
  Sn     2.0920511732    -1.6842541329    -1.0811698848
  Sn    -2.0967012321    -1.6830349836    -1.0774087220
  Sn    -2.5253550037     0.0018186792     1.3418551555
  Sn    -2.0912455755     1.6852077934    -1.0786373220
  Sn     2.5266048446    -0.0002411865     1.3424780792
  Sn     0.0011046842    -1.6452480801     1.3322857508
  Sn     2.0928444498     1.6834811661    -1.0801189457
9
MoSn8_4 -1783.045034527 12881.409 5.58 Build 2D scale=1
  Mo    -0.5007836871    -0.3172057849    -1.3273529000
  Sn    -3.1006517859     0.2634946810    -1.0572004255
  Sn     3.2865343163     0.4817178495     0.9046806496
  Sn     0.5014462186     0.1335984142     1.7032615805
  Sn    -1.6309847933     1.9359429462     0.7479325108
  Sn     0.3602367589    -2.5068462799     0.0790737039
  Sn     0.9405526729     1.9963698059    -0.7271020266
  Sn    -2.0651485719    -1.3115036453     1.1872822665
  Sn     2.2087988716    -0.6755679868    -1.5105753592
9
MoSn8_12 -1783.044768313 12717.547 19.19 MoSn8_4 x MoSn8_10
  Mo    -0.4713768567    -0.2826831898     0.4514513128
  Sn     1.5614329975     1.7275258282     1.0784505444
  Sn    -2.7933929809     0.5321199165    -0.7003583453
  Sn     0.4399329808    -2.0720049237    -1.3409165859
  Sn     2.7304410956    -0.1089998558    -0.8943919801
  Sn    -2.2227084808    -2.2466820510     0.7889408751
  Sn     0.2400662988     1.2831950989    -1.8712775087
  Sn     1.7082116171    -1.3868959476     1.6342256718
  Sn    -1.1926066714     2.5544251243     0.8538760158
9
MoSn8_3 -1783.040404287 12859.673 37.37 Build 2D scale=1
  Mo    -0.4705661177    -0.0039762782    -1.3728803440
  Sn    -1.3100804629     0.0138577166     1.9287777747
  Sn    -1.4557612364    -2.3599995421    -0.3299546101
  Sn    -3.2230655404    -0.0149658806    -0.2298018178
  Sn     2.1510677509    -0.0125498092    -1.7906927706
  Sn     3.6625188090     0.0054552068     0.7085450306
  Sn     1.0613153285     1.5368114969     0.6958924016
  Sn     1.0638039872    -1.5161294779     0.7308338336
  Sn    -1.4792325182     2.3514965679    -0.3407194979
9
MoSn8_8 -1783.036314034 12629.436 8.28 Build 3D scale=1
  Mo    -0.7451300168    -0.0264512779    -0.1560748005
  Sn    -2.8444139479     0.1631361007     1.3570795148
  Sn     2.4658659002    -1.5554185385    -0.0148018675
  Sn    -0.3297218197    -2.4116268315     1.0186781446
  Sn     0.8905477526    -0.3184620849    -2.2257539064
  Sn    -2.6520611893    -0.2810040691    -1.8881361085
  Sn     1.2540607027     0.2612686081     1.9058001351
  Sn    -0.4042700265     2.5856478038     0.4651213828
  Sn     2.3651226447     1.5829102893    -0.4619124945
9
MoSn8_15 -1783.036280193 12633.018 5.33 MoSn8_10 x MoSn8_8
  Mo    -0.7504463401    -0.1078060441    -0.1293534048
  Sn    -2.8454643884     0.4462960719     1.2959630023
  Sn    -2.6580010596    -0.9063338014    -1.6819893808
  Sn    -0.1149188080    -2.1319380848     1.5117568737
  Sn     2.1575022449     1.5221861475    -0.9950489818
  Sn     1.2250233749     0.8319133496     1.7443877972
  Sn     2.6565775138    -1.2733357139     0.3905012972
  Sn     0.8932637677    -1.0023458285    -2.0059397396
  Sn    -0.5635363052     2.6213639036    -0.1302774635
9
MoSn8_16 -1783.014084718 12417.144 21.15 MoSn8_3 x MoSn8_1
  Mo    -0.3222680935    -0.7080177886    -0.7529288525
  Sn    -1.9204359743     1.7944335605     1.2026427342
  Sn    -0.9362038759    -1.0133345613     1.8620035456
  Sn    -3.0448714622    -0.4451861262    -0.3857977825
  Sn     3.8402597989     1.3554842506     0.2921803918
  Sn     0.4090969259    -3.2369108453    -0.2311833683
  Sn     0.9261685429     1.5662903399     0.3158245979
  Sn     2.3930465460    -0.9249850470    -0.4661519970
  Sn    -1.3447924081     1.6122262175    -1.8365892691
9
MoSn8_14 -1783.010003070 12031.250 9.63 MoSn8_1 x MoSn8_2
  Mo    -0.2384302765    -0.2364360464    -0.0283511045
  Sn    -1.7441444803     1.2636169274    -1.7809991113
  Sn    -0.1773889090     2.6641795335     0.4895096541
  Sn     4.6161783838    -0.3486227515    -0.2265006439
  Sn    -3.1262352381    -1.0811495282    -0.9467156168
  Sn    -2.2512571511     0.7177326846     1.5964309871
  Sn     2.0301174470    -1.6519718097    -0.3923812573
  Sn     2.2555772447     1.1096674340     0.3342677112
  Sn    -1.3644170206    -2.4370164438     0.9547393813
9
MoSn8_7 -1783.009961264 12847.291 24.42 Build 3D scale=1
  Mo    -1.5896801191    -0.0081692212     1.3088899552
  Sn     2.6321272571    -1.4636338176    -0.7233272132
  Sn     0.0105757392     2.4155764982     0.6485367149
  Sn    -2.4459928942    -1.6312822271    -0.6658073230
  Sn    -2.4597982509     1.6163022608    -0.6581761257
  Sn     2.6198361833     1.4734956688    -0.7319996867
  Sn    -0.0473864793     0.0029889148    -1.6005013554
  Sn     0.0274061405    -2.4113423736     0.6494192587
  Sn     1.2529124234     0.0060642969     1.7729657751
9
MoSn8_11 -1783.009446570 12675.941 21.56 MoSn8_4 x MoSn8_5
  Mo    -0.0071197227    -1.1243816960     1.3918302867
  Sn     2.3495027000     0.0725919045     1.5178442865
  Sn    -2.7790787781     2.0230338401    -0.6376067784
  Sn    -1.6258845207    -0.7600191632    -1.3552271018
  Sn     1.6454683710    -0.7807816357    -1.3369077342
  Sn    -0.0116819086    -3.0288068347    -0.5015303724
  Sn     0.0042615174     1.5264802432     0.0583343697
  Sn     2.7906456470     2.0079206069    -0.6393448749
  Sn    -2.3661133053     0.0639627348     1.5026079188
9
MoSn8_9 -1782.994017166 12490.351 27.32 MoSn8_3 x MoSn8_2
  Mo    -1.5971362459    -0.2193923309    -1.5448291670
  Sn     2.6786161404     1.2749004316    -1.0535763100
  Sn     1.7830782409     0.2088262385     1.8953068611
  Sn    -2.8659381789    -1.9637476757    -0.1461069637
  Sn    -1.2309127509    -0.2224744044     1.7482007832
  Sn     3.4700168372    -1.3922185029    -0.1077974164
  Sn     0.0090668971     2.0143754523    -0.1107781025
  Sn     0.6952872568    -1.1791212799    -0.6937778797
  Sn    -2.9420781966     1.4788520714     0.0133581949
9
MoSn8_1 -1782.987318488 11956.930 13.66 Build 2D scale=1
  Mo    -0.1544747226    -0.0380774941    -0.8998344143
  Sn     0.9927992278     1.0000240140     1.2444741082
  Sn     2.5095893824    -1.5008472598    -0.0396600896
  Sn    -4.7171111405     0.5714116012     0.3292599983
  Sn     3.8673834022     1.0380159368     1.0456239801
  Sn    -0.1259237478    -2.7141154120    -0.2472824151
  Sn    -2.2497232837     1.6249497329    -0.5843568038
  Sn    -2.3589648219    -1.0275479264     0.6946538418
  Sn     2.2364257041     1.0461868075    -1.5428782054
9
MoSn8_5 -1782.983140820 11647.315 10.46 Build 3D scale=1
  Mo    -0.8453565791    -0.2634266880     0.4911062060
  Sn     1.7771703856    -1.0678439608     0.4331227103
  Sn     0.9287415998     1.8789610030     0.9946413453
  Sn    -1.2279839271     1.7064101026    -1.3355125873
  Sn    -1.9091845527    -1.6479763737    -1.4494077935
  Sn    -3.7406903876     0.7921240218    -0.3109540189
  Sn     4.4659763467    -1.3844819742    -0.5141047503
  Sn     3.5949422067     1.2079463491     0.0795267904
  Sn    -3.0436150923    -1.2217124798     1.6115820979
