7
MoSn6_12 -1354.314105956 8062.500 43.74 MoSn6_4 x MoSn6_2
  Mo    -0.4039823287    -0.0055064381    -1.4538192991
  Sn    -1.9727882937     1.5741412457     0.0453588452
  Sn     0.8599678674     2.2390087793    -0.2654692320
  Sn    -1.9423396042    -1.6087283640     0.0498796517
  Sn     2.5456617857     0.0233829950     0.0551876338
  Sn     0.0114355468     0.0016906643     1.8351011516
  Sn     0.9020450266    -2.2239888822    -0.2662387512
7
MoSn6_15 -1354.309275736 8029.656 39.20 MoSn6_12 x MoSn6_14
  Mo    -0.2924802643    -0.0009806214    -1.5358962799
  Sn     1.6015339894     1.7104384853    -0.8417636186
  Sn     1.5627021119     0.0017650710     1.6700781348
  Sn     1.6030373725    -1.7109408940    -0.8385955154
  Sn    -0.8538584258    -1.5752012998     1.0416065073
  Sn    -0.8548680733     1.5758228343     1.0413857484
  Sn    -2.7660667104    -0.0009035754    -0.5368149767
7
MoSn6_6 -1354.309272832 8029.039 40.29 Build 3D scale=1
  Mo    -0.2889591949    -0.0034793909    -1.5326513288
  Sn     1.6053472270    -1.7142495117    -0.8365103135
  Sn    -0.8538890412    -1.5744219170     1.0446998872
  Sn    -2.7646294130    -0.0025922732    -0.5429697982
  Sn     1.5628346011     0.0052399880     1.6663421955
  Sn     1.5985794925     1.7161248028    -0.8420327661
  Sn    -0.8592836717     1.5733783020     1.0431221239
7
MoSn6_5 -1354.295579654 7550.294 14.05 Build 3D scale=1
  Mo    -0.2763521319    -0.0054595996     0.3312302577
  Sn    -2.2439814718     1.6784954881     0.6064771977
  Sn     3.0383714583     0.0019689123     0.1080386120
  Sn     1.2388543787    -2.1707591260     0.2887982057
  Sn     1.2281753821     2.1672951979     0.3000898316
  Sn    -2.2355290904    -1.7051351063     0.5666324962
  Sn    -0.7495385250     0.0335942335    -2.2012666009
7
MoSn6_4 -1354.295044284 7990.182 39.11 Build 2D scale=1
  Mo    -1.3593784208    -0.0120120803     1.4097864539
  Sn     0.2569440495    -0.0743497324    -1.7519301369
  Sn    -2.0634472408    -1.6014355108    -0.5178594119
  Sn    -1.7090353506     1.7930989376    -0.4740246952
  Sn     0.8679540147    -1.4971325530     1.0080467660
  Sn     2.9923694149    -0.1756120524    -0.5179682086
  Sn     1.0145935332     1.5674429913     0.8439492327
7
MoSn6_14 -1354.295041662 7990.346 36.74 MoSn6_4 x MoSn6_6
  Mo    -1.3578844556    -0.0057513221    -1.4125986667
  Sn     0.8690563131    -1.4953240804    -1.0082566572
  Sn     1.0130114106     1.5694273097    -0.8420175913
  Sn     2.9943814336    -0.1715048705     0.5162633296
  Sn    -2.0627679576    -1.5997330099     0.5128430377
  Sn     0.2601268173    -0.0815727482     1.7524463632
  Sn    -1.7159235614     1.7844587215     0.4813201848
7
MoSn6_11 -1354.295041316 7990.040 38.54 MoSn6_3 x MoSn6_6
  Mo    -1.3592201166    -0.0073450795     1.4101030822
  Sn    -2.0651525368    -1.5993454777    -0.5151051139
  Sn     0.8689749947    -1.4959445706     1.0121881913
  Sn     1.0142190763     1.5675798471     0.8420734808
  Sn    -1.7088183245     1.7913412232    -0.4779690988
  Sn     2.9919552619    -0.1733779663    -0.5186998768
  Sn     0.2580416448    -0.0829079762    -1.7525906649
7
MoSn6_3 -1354.295025124 7990.470 37.18 Build 2D scale=1
  Mo    -1.3604580638    -0.0079192122    -1.4111800446
  Sn    -2.0607779056    -1.6008770412     0.5163406523
  Sn     1.0134110241     1.5680386999    -0.8432138141
  Sn    -1.7128555355     1.7877968490     0.4789560120
  Sn     0.8663223974    -1.4953402653    -1.0097010610
  Sn     2.9938207506    -0.1733842184     0.5158312380
  Sn     0.2605373329    -0.0783148117     1.7529670173
7
MoSn6_8p -1354.295023490 7989.648 39.20 Build 3D scale=1
  Mo    -1.3629530969    -0.0051823468     1.4099647470
  Sn     0.2589554574    -0.0862800750    -1.7521721581
  Sn     2.9916812786    -0.1795209743    -0.5173454160
  Sn     0.8646305203    -1.4946883022     1.0148672730
  Sn    -2.0687802827    -1.5973048169    -0.5155800594
  Sn     1.0170140705     1.5676780370     0.8405513033
  Sn    -1.7005479472     1.7952984782    -0.4802856899
7
MoSn6_8n -1354.295022086 7989.808 38.63 Build 3D scale=1
  Mo    -1.3630795252    -0.0047325853    -1.4102227487
  Sn     0.2591971802    -0.0860280001     1.7525030863
  Sn     2.9918465521    -0.1780744937     0.5171236420
  Sn     1.0161359108     1.5676801304    -0.8412169229
  Sn    -1.7022085902     1.7938439224     0.4811043172
  Sn     0.8651215643    -1.4946302361    -1.0144131861
  Sn    -2.0670130920    -1.5980587376     0.5151218122
7
MoSn6_9 -1354.295018278 7990.406 37.88 MoSn6_4 x MoSn6_2
  Mo    -1.3612723171    -0.0076610226     1.4107736029
  Sn     0.2606030456    -0.0780970133    -1.7529601254
  Sn    -2.0628386692    -1.5995094261    -0.5166624931
  Sn     1.0135461832     1.5654856819     0.8449513727
  Sn     0.8664210649    -1.4986928947     1.0072661443
  Sn     2.9932910647    -0.1720042218    -0.5152655236
  Sn    -1.7097503722     1.7904788967    -0.4781029778
7
MoSn6_7 -1354.254169791 7379.949 18.39 Build 3D scale=1
  Mo    -1.4739660810    -1.3856002839    -0.3216749764
  Sn    -0.4851171935     1.2456734917    -0.6141196386
  Sn    -2.1250642898    -0.2440564084     1.8854247799
  Sn     3.8771172220    -0.5286376759    -0.1978182959
  Sn     2.2252998633     1.6269496959     0.5518825255
  Sn     1.1979724293    -1.2455689371    -0.3043991345
  Sn    -3.2162419503     0.5312401176    -0.9992952599
7
MoSn6_1 -1354.252246802 7471.233 18.36 Build 2D scale=1
  Mo    -1.9763916357    -0.1296644089    -1.0964020304
  Sn     0.0931827951    -1.8407260840    -0.9827829451
  Sn    -2.0451942882     2.0366526053     0.3677555249
  Sn     0.6082104608     1.0039213477    -0.4738665551
  Sn    -2.3314466298    -1.0276536201     1.2698796755
  Sn     3.2963317475     1.2914282866     0.1235649609
  Sn     2.3553075503    -1.3339581265     0.7918513693
7
MoSn6_16 -1354.243891503 6962.185 11.43 MoSn6_8p x MoSn6_2
  Mo    -2.6777577440    -1.2979361976    -0.1901187905
  Sn     1.8094463430     1.5042182163     0.0997304238
  Sn     2.5062012374    -1.5388727502    -0.0887761453
  Sn    -2.9313501514     0.9164624386    -1.4364476226
  Sn    -2.9153623492     0.4673885500     1.6421466315
  Sn     4.4262859916     0.4852512995     0.0399134222
  Sn    -0.2174633274    -0.5365115566    -0.0664479191
7
MoSn6_2 -1354.243889630 6971.458 10.36 Build 2D scale=1
  Mo    -2.6941962642    -1.3050459891     0.0519575722
  Sn    -0.2200017514    -0.5766168928     0.0517258003
  Sn    -2.8625739599     0.6337512580    -1.6042532272
  Sn    -2.9305103178     0.7845704536     1.5008707416
  Sn     4.4087775672     0.5116804070    -0.0344451392
  Sn     2.5173419654    -1.5441513930     0.0353642248
  Sn     1.7811627607     1.4958121564    -0.0012199725
