13
MoSn12_8 -2640.558044215 25652.744 24.38 MoSn12_7 x MoSn12_6
  Mo    -0.0002903904    -0.0169421795    -0.4910006250
  Sn     2.6130958519     1.5330568347    -1.2811295603
  Sn    -1.9301234755    -1.2803014960    -1.9831901460
  Sn     3.1294986337    -0.4799755290     0.8162747184
  Sn     0.0004652385     2.8896243417    -0.9378585236
  Sn     1.5400133348     1.9857616796     1.5973788755
  Sn    -1.5350685633     1.9838324669     1.6016890180
  Sn    -3.1322338432    -0.4796979675     0.8162003984
  Sn    -2.6120911178     1.5360616718    -1.2765221100
  Sn    -0.0001765664    -0.6652671047     2.2379579507
  Sn    -1.4548098815    -2.8603251826     0.4405061767
  Sn     1.9244340178    -1.2824460528    -1.9855190083
  Sn     1.4572867615    -2.8633814827     0.4452128356
13
MoSn12_6 -2640.556995578 25656.804 19.18 Build 3D scale=1
  Mo    -0.0005210230    -0.3267247844     0.0050645400
  Sn    -2.4813108664     1.8505472391    -0.0160846764
  Sn     1.6431186770    -0.1625845414    -2.3351156000
  Sn     1.4085187256    -2.9332820878     0.0039789056
  Sn    -1.6329243448    -0.1609797495    -2.3385209632
  Sn    -3.4224631815    -0.9042226650     0.0034902910
  Sn     1.6286191525    -0.1205757908     2.3464611540
  Sn     0.0088290944     2.4227434757    -1.5635366707
  Sn     2.4912810402     1.8399076285    -0.0106723422
  Sn     3.4161377949    -0.9198866809     0.0198262439
  Sn     0.0037826987     2.4579371870     1.5213320263
  Sn    -1.4237359062    -2.9269590721     0.0236944435
  Sn    -1.6393318615    -0.1159201583     2.3400826482
13
MoSn12_7 -2640.556980392 25657.117 14.55 MoSn12_6 x MoSn12_6
  Mo    -0.0001280475    -0.3266691595    -0.0040070044
  Sn    -2.5031947860     1.8243337292     0.0109867239
  Sn     1.6347797528    -0.1180950624    -2.3402977451
  Sn    -1.6381656593    -0.1595819799     2.3399453960
  Sn    -1.6352039127    -0.1307871533    -2.3448470359
  Sn    -3.4074364063    -0.9431455448    -0.0095614845
  Sn     1.4459841187    -2.9171377827    -0.0106466547
  Sn    -0.0231916557     2.4529851879    -1.5301365632
  Sn     2.4669776801     1.8630973055     0.0094971957
  Sn    -1.3851347117    -2.9425595816    -0.0082704933
  Sn     3.4317617216    -0.8827363264    -0.0059748447
  Sn    -0.0222033662     2.4289504297     1.5572580103
  Sn     1.6351552722    -0.1486540616     2.3360544998
13
MoSn12_12 -2640.534755445 25409.374 26.93 MoSn12_10 x MoSn12_9
  Mo    -0.2285558769    -0.2093687947    -0.4942559973
  Sn     0.9032081475     2.4034593419     1.2546865995
  Sn    -0.3002643878     2.3228507685    -1.6814617933
  Sn     2.5633262151     1.3425971852    -1.1253467535
  Sn     2.0417977882    -0.3907377540     1.4122965322
  Sn    -1.8714477719    -2.0945058892    -1.6870862688
  Sn     4.5100868706    -0.7450836872    -0.0214130567
  Sn    -0.6273221112    -2.6569976938     1.0438427445
  Sn    -0.6835799447    -0.0545910852     2.5735674719
  Sn     1.9344433215    -1.6692859754    -1.3810333163
  Sn    -2.9573788153     0.7016278086    -1.6320831527
  Sn    -3.1993045830    -0.9626864160     0.8161909602
  Sn    -2.0850088520     2.0127221912     0.9220960302
13
MoSn12_16 -2640.534676234 25409.835 28.33 MoSn12_15 x MoSn12_13
  Mo    -0.2288884783    -0.2065920149    -0.4967410324
  Sn     2.5698142422     1.3420490772    -1.1092926914
  Sn    -3.2060973632    -0.9513921677     0.8124297317
  Sn    -2.0759597221     2.0196617736     0.9215960756
  Sn    -2.9493188728     0.7154726473    -1.6347829980
  Sn    -0.6433008516    -2.6597524077     1.0356498852
  Sn     1.9323661987    -1.6638806190    -1.3924604425
  Sn    -1.8824422737    -2.0876749442    -1.6882780331
  Sn    -0.6881907110    -0.0603362082     2.5709846828
  Sn    -0.2853783570     2.3288147763    -1.6767088672
  Sn     0.9120159367     2.3889325285     1.2687922121
  Sn     4.5096615802    -0.7458005322    -0.0254922708
  Sn     2.0357186720    -0.4195019090     1.4143037482
13
MoSn12_14n -2640.529626660 25497.369 26.24 MoSn12_13 x MoSn12_6
  Mo    -0.2977973487    -0.3345010970    -0.5658328908
  Sn    -0.2045780580    -2.7500529780     1.0392514945
  Sn    -3.3870513674     0.7260143944    -0.6626864890
  Sn     3.3448729549     1.2567296149     1.1260314859
  Sn     1.2101417733    -2.2582978999    -1.8933668587
  Sn     2.5847685981     0.3288370123    -1.6378542342
  Sn    -1.6001224718     2.3425418282     1.0134117304
  Sn     2.6356479819    -1.6750300008     0.7383380496
  Sn    -0.9934053232     1.8511022665    -2.1075611459
  Sn     0.5123075733     0.3552328178     2.0461313181
  Sn    -2.4105253455    -0.5227520824     1.9474917110
  Sn    -2.4911442237    -2.0361961057    -0.8242370293
  Sn     1.0968852567     2.7163722299    -0.2191171417
13
MoSn12_14p -2640.523098496 25381.805 5.19 MoSn12_13 x MoSn12_6
  Mo    -0.3357967371    -0.4700205272    -0.3404967968
  Sn    -0.2464501719    -3.3156061488     0.4637971843
  Sn    -3.1619958786     0.6509607893    -0.9987990345
  Sn     3.3469652840     1.2051750172     1.3708288229
  Sn     1.2720772608    -2.3121475887    -1.7920370416
  Sn     2.6824080057     0.1151325775    -1.4192088905
  Sn    -1.5868721621     2.7128441326     0.2760204319
  Sn     2.1697364399    -1.6127238089     1.2087375104
  Sn    -0.5539941193     1.2890091860    -2.4782277999
  Sn     0.4295147983     0.8113219618     1.9910503047
  Sn    -2.5051637170     0.3208158367     2.0400540540
  Sn    -2.7546551506    -1.9824889212     0.1358706104
  Sn     1.2442261479     2.5877274938    -0.4575893553
13
MoSn12_13 -2640.522692093 25303.050 17.18 MoSn12_12 x MoSn12_7
  Mo    -0.5373761757    -0.0044825709    -0.4204023115
  Sn    -2.0292570978     2.4550944632    -0.6744773970
  Sn    -2.1480914728    -0.0107060461    -2.5942838098
  Sn     3.8733602344     1.4591848969    -0.1182602048
  Sn    -1.3890402101     1.4556709345     2.1112160519
  Sn     1.6046006488     0.0080629721     1.6356083550
  Sn     3.9009708569    -1.4222929626    -0.1318271259
  Sn     0.9124258139     2.6073865323     0.0413577886
  Sn     0.9558405282    -2.6023302711     0.0509090405
  Sn     1.7597791148    -0.0025650120    -1.7276831812
  Sn    -1.9907310868    -2.4771294788    -0.6585513330
  Sn    -1.3746133614    -1.4525045742     2.1211781597
  Sn    -3.5378677924    -0.0133888833     0.3652159676
13
MoSn12_17 -2640.515295196 25083.327 18.54 MoSn12_10 x MoSn12_12
  Mo    -0.3977796086    -0.3177624480     0.1124486269
  Sn     0.7501526632    -2.5506185757    -1.3476011485
  Sn     1.5205429299     0.6367632584    -1.6526985373
  Sn     4.1236872418     1.2897229839    -0.5258806375
  Sn    -0.0511298415     2.9927459954     0.8385887817
  Sn     3.1065763099    -1.5284817978     0.1098751096
  Sn    -1.2114092946     2.0806487110    -1.7169826488
  Sn    -2.5944717781     1.7182232819     1.1556006474
  Sn    -3.3792304854     0.2289211828    -1.2110585799
  Sn     1.8981814278     0.9435431973     1.4511679999
  Sn     0.7695367575    -1.9398341586     2.0586228657
  Sn    -2.4165287158    -1.1664904217     1.8082976047
  Sn    -2.1181276060    -2.3873812089    -1.0803800838
13
MoSn12_10 -2640.511039189 24959.894 16.10 MoSn12_3 x MoSn12_8
  Mo    -0.6378356890    -0.2035842907     0.0354133890
  Sn    -2.6596963908     1.1967471694    -1.6028158226
  Sn     0.8555900218    -2.5658490422    -0.8912230060
  Sn     1.6844799534    -0.7430451043     1.5832323315
  Sn     3.8564631407    -1.6964675669    -0.2551474158
  Sn    -4.1031416856    -0.1868228865     0.5551988302
  Sn    -2.2858641251    -1.9170543554    -1.2976398537
  Sn     4.0053187588     1.1528090510     0.5126697673
  Sn     1.8801319492     0.2294774932    -1.4902131227
  Sn    -1.9410199604    -1.7020237766     1.9072202847
  Sn    -1.8504356881     1.7039027296     1.4943351997
  Sn     1.2231872506     2.2742412104     1.0780102875
  Sn    -0.0271775355     2.4576693689    -1.6290408691
13
MoSn12_18 -2640.496192256 25120.985 18.52 MoSn12_12 x MoSn12_13
  Mo    -0.5782197537    -0.0081469340     0.7085935180
  Sn     0.3282492732    -0.0324791339     3.3645387509
  Sn     1.7071665984     1.7912073678     1.5353844622
  Sn     2.6447500904     2.8288600077    -1.1185601717
  Sn    -0.3134318602     2.4916142036    -0.5871736682
  Sn    -3.0805806068    -0.0693901322     1.6782717738
  Sn     1.9473714557     0.0181843515    -1.1411798809
  Sn    -3.0097519147     1.5844411154    -0.8052166221
  Sn    -0.8445775651     0.0347119239    -2.4739143639
  Sn     2.7050405303    -2.7796876685    -1.1493933570
  Sn     1.7353243669    -1.7881292394     1.5047251945
  Sn    -2.9771893296    -1.6010831329    -0.8734892607
  Sn    -0.2641512849    -2.4701027289    -0.6425863750
13
MoSn12_3 -2640.487477417 24670.018 7.56 Build 3D scale=1
  Mo    -1.2184832801    -0.7806909467    -0.1109134799
  Sn    -3.9120348202    -0.7141629397    -0.1369225273
  Sn     1.1208429866     0.8694257604    -2.2969159766
  Sn     1.2803024998    -1.5629411821    -0.2175082025
  Sn     3.6873298674    -0.5888774721    -1.6459029188
  Sn    -1.8869395689    -3.3004729307    -0.3873312632
  Sn    -2.9293836493     2.2648545019     0.3092176354
  Sn     3.6739204501    -1.0076791268     1.4387845601
  Sn     3.0926163139     1.7590347223     0.2402268365
  Sn    -1.9869235020     0.1452638925     2.3621905333
  Sn    -1.9710676942     0.8033784063    -2.2471388311
  Sn     1.1051243245     0.2266275986     2.4404205870
  Sn    -0.0553039275     1.8862397160     0.2517930471
13
MoSn12_15 -2640.473187133 24129.429 15.35 MoSn12_10 x MoSn12_2
  Mo    -0.9662336623    -0.2161345465     0.1001601714
  Sn     3.0278981112     0.0135502099     2.0730152473
  Sn    -3.2939548655     1.2619239031    -0.3323162738
  Sn    -3.3098995099    -1.4723947783     0.6543584378
  Sn    -5.7564552403     0.0113594483     0.3363505727
  Sn     2.3333621228     1.7603895515    -0.4139873344
  Sn    -0.4988423856     2.6037413257    -0.8562139495
  Sn     0.4471084276     0.2977696553    -2.4731418950
  Sn    -0.2790776516    -2.4402078306    -1.4395415282
  Sn     0.2772260481     1.4431776854     1.9647355105
  Sn     0.6984231934    -1.7423591819     1.5747296809
  Sn     4.7971847799     0.0719018175    -0.2602470606
  Sn     2.5232606321    -1.5927172593    -0.9279015792
13
MoSn12_11 -2640.456636069 23906.042 15.25 MoSn12_3 x MoSn12_2
  Mo    -1.0036236697    -0.1687487149    -0.1265636829
  Sn    -1.9255901606    -2.4916378244     0.9478538074
  Sn     3.7950429568    -0.8869491667     0.6664449066
  Sn    -3.3881927715     0.4067831447    -1.2776900331
  Sn     0.1176331118     1.7943663278    -1.6792402132
  Sn     1.1744906377     1.0166747670     1.1825176973
  Sn    -0.2413619969    -3.0296620875    -1.4296508214
  Sn    -5.3326231073     1.7523329479     0.3923968968
  Sn     3.1766486304     1.7053527452    -1.4534214535
  Sn    -2.8194790243     0.9104021813     1.5494642624
  Sn     1.0116048692    -2.1327474772     1.3214512493
  Sn     3.8556092661     1.9966187927     1.4118620705
  Sn     1.5798412582    -0.8727856359    -1.5054246862
13
MoSn12_9 -2640.450624735 24715.183 17.09 MoSn12_7 x MoSn12_1
  Mo    -1.4403745026    -1.6357424314    -0.6658101883
  Sn     0.0933382327     2.8929444651     1.6378076920
  Sn     2.5583675447     1.1598307729     1.6897667735
  Sn    -3.5265922481    -2.3722359942     0.8304815947
  Sn    -3.3855727633     0.3785110061     0.1040311399
  Sn    -0.0292633069    -0.1560880425     1.0708711774
  Sn     1.2630975762     2.2901245330    -1.1169884369
  Sn    -2.2045022599     3.1192119885    -0.1687011704
  Sn     2.8327596815    -1.8620790982     0.9929650462
  Sn    -1.2643869733     0.7698603735    -1.8874404743
  Sn     3.5719596403     0.2020850698    -1.1631463559
  Sn     0.3154807172    -3.3586002824     0.4059215677
  Sn     1.2156886616    -1.4278223601    -1.7297583654
13
MoSn12_2 -2640.432284748 23987.241 14.46 Build 3D scale=1
  Mo    -1.6966572592    -0.8118142554    -0.9353143149
  Sn    -4.0852974483    -0.8754774491     0.3646738064
  Sn     2.5670655905     0.3904977569     2.2342062492
  Sn     2.9984846296    -0.1765236325    -0.9293867549
  Sn     0.2316075144     0.7705184863    -2.3541351297
  Sn     1.4581675417     2.6172148900    -0.2446378495
  Sn     0.1021521970     0.1883020260     0.7357422591
  Sn    -0.9058952769    -2.8059427444     0.6998621911
  Sn     0.8360085938    -2.2389339914    -1.7029923011
  Sn    -5.3127926175     1.6595318278     0.8619837546
  Sn    -2.6524120237     1.6885212010    -0.2258688036
  Sn     4.2756999207     2.0512942300     0.3854909555
  Sn     2.1838686380    -2.4571883453     1.1103759377
13
MoSn12_5 -2640.412495620 22252.254 5.23 Build 3D scale=1
  Mo    -3.6554794973    -0.0063164695    -1.0113977264
  Sn     1.1136866867     0.3224628125    -0.4304128509
  Sn    -2.5959229493     2.3080029602     0.7080221998
  Sn     3.4898995854    -1.1281855298    -1.2389977082
  Sn    -1.2718979857     1.1750695163    -1.7431724567
  Sn     5.3419422413     1.1642871796    -1.3381101893
  Sn     5.4502730585    -0.8153000417     1.0210747488
  Sn     3.4478925180     1.4214873430     0.8989514733
  Sn    -1.3423768018    -0.2851723355     1.2462975463
  Sn    -5.0832096578     1.0046374642     1.1491016383
  Sn     2.7303183374    -1.4789801828     1.7453548201
  Sn    -5.5602155665    -1.5811771942    -0.1350443294
  Sn    -2.0649099688    -2.1008155224    -0.8716671656
13
MoSn12_1 -2640.400927801 24038.595 13.85 Build 3D scale=1
  Mo    -0.8909307050    -2.3603182163    -1.2038602160
  Sn    -0.7927702672     1.2297945255     3.0066072638
  Sn    -2.4333141433     2.1983607572    -1.7887406519
  Sn    -1.1027687087    -3.8094770202     0.9369432110
  Sn     3.9779281797    -1.0178990630     0.6522316916
  Sn    -0.1768981452     0.3436800053    -2.2805683839
  Sn    -2.9032466554    -0.6785225773    -0.8033677204
  Sn     4.8361265031     1.6474194414     0.0715238813
  Sn    -0.6472860329    -0.9004497355     1.2143475664
  Sn     2.1518528811     1.2215225097    -0.5699641561
  Sn    -0.4107991771     2.5566426734     0.2988718238
  Sn    -3.2527669444     1.4135072501     1.2545127909
  Sn     1.6448732154    -1.8442605503    -0.7885371004
