12
MoSn11_17 -2426.191200175 22247.386 28.69 MoSn11_11 x MoSn11_8
  Mo    -0.2074635391    -0.2262391201     0.3213786014
  Sn     2.6075180766    -1.6074125626    -0.1227778877
  Sn    -2.3546097918     1.9016718838     0.6237279210
  Sn    -3.1715981252    -0.8506256187     0.3808480101
  Sn     2.6375085803     1.3701552973     0.1254122901
  Sn    -1.0972455903    -2.6161938882     1.3841434685
  Sn     0.0888808687     2.6221688876    -1.1310645255
  Sn     1.3860228407    -0.6725647612     2.4950787977
  Sn    -1.6620591585     0.2686752044    -2.1610405760
  Sn     0.1113127399    -2.4757512691    -1.5425373335
  Sn     1.3485489487     0.1474560063    -2.3375865692
  Sn     0.3131841502     2.1386599405     1.9644178029
12
MoSn11_8 -2426.191176938 22246.288 28.44 MoSn11_3 x MoSn11_4
  Mo    -0.2097732314    -0.2240255476     0.3251760938
  Sn    -3.1851435735    -0.8067948722     0.3812303148
  Sn    -1.1384856332    -2.5990072974     1.3870254403
  Sn    -1.6629852945     0.2970177575    -2.1565036494
  Sn     1.3876341705    -0.6941654600     2.4903307335
  Sn     0.3517478838     2.1305776242     1.9654300764
  Sn     2.5837008128    -1.6447073167    -0.1311876606
  Sn    -2.3230204597     1.9356824038     0.6315124595
  Sn     1.3436973192     0.1253071812    -2.3375668088
  Sn     0.1265467872     2.6214030619    -1.1300973120
  Sn     2.6597794705     1.3345856142     0.1164092672
  Sn     0.0663017483    -2.4758731488    -1.5417589547
12
MoSn11_7 -2426.163658351 21805.840 26.61 MoSn11_3 x MoSn11_1
  Mo    -0.3290807371    -0.5692035759     0.0000230526
  Sn    -0.9898822072     1.2201007524     2.4976879522
  Sn    -0.1839982337    -3.3166606912    -0.0039044025
  Sn    -2.4019227733    -1.3132221762    -1.6354368071
  Sn    -2.4037458816    -1.3220156827     1.6283912828
  Sn    -0.9870788412     1.2327933088    -2.4949157521
  Sn    -0.0437734281     2.7980200974     0.0056311540
  Sn     1.7241731881     0.6350096159     1.5228896503
  Sn     4.2488021871     0.4991721792    -0.0022107754
  Sn     2.3597716871    -2.0135086753    -0.0008565787
  Sn     1.7221468845     0.6354701637    -1.5186465802
  Sn    -2.7154118447     1.5140446838     0.0013478041
12
MoSn11_13 -2426.160611810 21784.268 20.89 MoSn11_10 x MoSn11_8
  Mo    -0.2643873995    -0.3676853725     0.2068268199
  Sn     1.9210303341    -1.2511025122    -1.4664811821
  Sn     4.4863003967    -0.6207192349     0.2765686801
  Sn    -3.6864765906    -0.4571286860     0.0276135520
  Sn    -1.7076433505    -0.8759154925    -2.1750992274
  Sn    -2.1294985827     1.9553175475    -0.5435474023
  Sn     2.4670613977     1.5205674971    -0.0715154085
  Sn     0.3424464415     1.3412858964    -2.2074172346
  Sn    -1.9045069802     0.2349329978     2.3831585393
  Sn    -1.5436785411    -2.6921284984     0.5559018960
  Sn     0.0903780104     2.2672985706     1.4317137531
  Sn     1.9289748641    -1.0547227129     1.5822772146
12
MoSn11_14 -2426.160534378 21782.994 19.26 MoSn11_8 x MoSn11_2
  Mo    -0.2626861046    -0.3754123079     0.1943010669
  Sn    -1.6995968511    -0.8325886757    -2.1942990757
  Sn     2.4624086154     1.5157942876    -0.0283278632
  Sn    -2.1209748482     1.9659174021    -0.5039762344
  Sn     4.4903299525    -0.6216999567     0.2753222111
  Sn    -1.5636480354    -2.6939784491     0.5102534209
  Sn     1.9284749325    -1.2099164584    -1.5007547788
  Sn    -3.6912323908    -0.4469065093     0.0102273658
  Sn     0.0875694899     2.2328593590     1.4877611776
  Sn    -1.9084793294     0.1818577759     2.3820636373
  Sn     1.9275205721    -1.1069302196     1.5503408208
  Sn     0.3503139971     1.3910037522    -2.1829117483
12
MoSn11_16 -2426.159374017 22038.356 28.19 MoSn11_12 x MoSn11_4
  Mo    -0.5049072624    -0.0006118308     0.6256517202
  Sn     3.2715103063     0.0071566856    -1.3845485735
  Sn    -1.4167681046    -2.4746471156    -0.6253271499
  Sn    -1.4301528092     2.4746915435    -0.6164783061
  Sn    -2.5779059295     0.0015357720    -2.0124777793
  Sn     0.3388519180     0.0008680803    -2.1377311485
  Sn    -0.1039086783    -2.1933259119     2.1384349326
  Sn    -3.1205894407    -0.0122968001     1.0667106210
  Sn     1.6852236204    -2.3442720365    -0.4143581319
  Sn     1.6739908225     2.3480531433    -0.4144937273
  Sn    -0.1102890989     2.1892106369     2.1435396402
  Sn     2.2949446565     0.0036378333     1.6310779025
12
MoSn11_11 -2426.156252420 22035.040 28.97 MoSn11_2 x MoSn11_1
  Mo    -0.5976927985    -0.0017050140    -0.6522146357
  Sn    -2.7001640933     1.7557962889    -0.0451933964
  Sn     4.0284908650     0.0125407169     0.4063871578
  Sn    -0.1422033330    -2.7314086728     1.1459457562
  Sn    -0.1561089637     2.7319698104     1.1428008444
  Sn    -2.6896270332    -1.7678042091    -0.0492892818
  Sn     1.2835494260     0.0060220926     1.7320172017
  Sn    -0.6091217971     2.3600651047    -2.1582642632
  Sn    -0.5855978634    -2.3751395109    -2.1476674939
  Sn    -1.5596020533    -0.0038132263     2.2897243755
  Sn     1.8700075150    -1.6024715387    -0.8309685912
  Sn     1.8580701295     1.6159481581    -0.8332776733
12
MoSn11_15 -2426.147525949 21768.728 10.93 MoSn11_7 x MoSn11_10
  Mo    -1.0262031023    -0.1642748288     0.5027463689
  Sn     1.3412876605     0.2677452019    -1.4729589803
  Sn    -2.2347567182     2.1172755168     1.2813704104
  Sn    -3.4764139430    -0.5029969116    -0.5053791620
  Sn    -1.2530013655     1.8902962841    -1.7300916327
  Sn     0.7291988911     2.5076775597     0.6449930462
  Sn     3.6228452338     1.4051437006     0.2400670011
  Sn     0.4309683006    -2.5859569733    -0.2067760992
  Sn     3.4698301803    -1.5797673730    -0.2282102236
  Sn    -1.9255574339    -1.9311224485     2.2093931748
  Sn     1.4435531821    -0.3073017335     1.6834012081
  Sn    -1.1217508855    -1.1167179943    -2.4185551118
12
MoSn11_4 -2426.146572025 21701.073 11.86 Build 3D scale=1
  Mo    -1.0343224692    -0.4556500348    -0.1928441040
  Sn     3.5688233248    -1.6248303774     0.3044338309
  Sn    -2.7744733495    -0.8939700731     1.8030518659
  Sn     0.6394562329     2.4525914811    -0.2428634557
  Sn     3.5154819157     1.3502759148     0.0763749839
  Sn    -0.8936485301     1.5639176792     2.3146719548
  Sn    -0.8204242182     1.0890367775    -2.6629052616
  Sn    -2.9751988929    -1.9763861827    -1.1005781692
  Sn    -2.4252298444     1.9671661199    -0.2858862103
  Sn     1.5036122365    -0.4033777162    -1.5920997680
  Sn     0.4562650005    -2.8081238368     0.0150132207
  Sn     1.2396585939    -0.2606497516     1.5636311125
12
MoSn11_18 -2426.144256331 21765.510 23.05 MoSn11_16 x MoSn11_1
  Mo    -0.4574366526    -0.4857416480     0.3045973111
  Sn     1.2506455026     0.3089277844    -1.8018910941
  Sn    -3.2308562263    -0.7029148718    -0.8983982943
  Sn    -0.4469486495     2.4524025051     1.4818062310
  Sn     2.1639600332     1.3037895819     1.0529334275
  Sn    -1.4897593989     1.6982066896    -1.3808390186
  Sn    -1.6573750829    -2.9823784769    -0.0974853473
  Sn    -2.7554975573     0.7645712625     1.5577494032
  Sn     1.1418015486     3.2555015133    -1.1030878515
  Sn     3.2966787896    -1.1414108875     0.0155487353
  Sn     1.1509770311    -1.7722634303     2.0077625755
  Sn     1.0338106621    -2.6986900223    -1.1386960777
12
MoSn11_12 -2426.143684660 21531.315 19.02 MoSn11_4 x MoSn11_6
  Mo    -0.7022855785    -0.5107421246     0.4808455598
  Sn     4.0458329135    -1.3802972815     0.1567709163
  Sn    -3.1274043132     0.5104047668    -0.8960294835
  Sn     1.5540122391    -0.3270437194    -1.2839038238
  Sn    -1.7928337283     2.3897385158     1.1289827659
  Sn    -0.5836561152     1.9797790334    -1.6267895330
  Sn    -1.8536751199    -2.8213056177    -0.1145076998
  Sn    -2.7888675303    -0.4497063936     2.1528312817
  Sn    -1.0429015588    -0.9830189200    -2.5366598598
  Sn     3.7737501086     1.5657408688    -0.0911054138
  Sn     1.0599511082     1.5796200514     1.0728915454
  Sn     1.4580775746    -1.5531691794     1.5566737445
12
MoSn11_3 -2426.143603032 21536.315 14.79 Build 3D scale=1
  Mo    -0.6943996281    -0.5070919326     0.5037945730
  Sn    -1.7620116205     2.3986452507     1.1210285901
  Sn    -2.8224418076    -0.4095294509     2.1304098722
  Sn    -3.1227039069     0.5292832431    -0.9008993911
  Sn     1.4551232008    -1.5765920810     1.5789976893
  Sn    -1.0453223549    -0.9860805319    -2.5276202336
  Sn    -0.5542927050     1.9620207926    -1.6212330200
  Sn     1.0995257362     1.5528947123     1.0839905470
  Sn     3.7895830301     1.5545847104    -0.1390518662
  Sn     4.0448936088    -1.3919653204     0.1674137690
  Sn     1.5535196638    -0.3602932884    -1.2657010485
  Sn    -1.9414732167    -2.7658761039    -0.1311294811
12
MoSn11_9 -2426.137312558 21584.121 19.51 MoSn11_1 x MoSn11_8
  Mo    -0.0662530169    -0.5799414234     0.7196626902
  Sn     1.7873376657     1.1870719459     1.5641576518
  Sn     0.8662889909     1.3268403758    -1.4328291818
  Sn    -1.2711990146    -2.8157525221    -0.2797711336
  Sn    -2.6190502784    -0.3806097930     1.5916533084
  Sn     1.7616936638    -2.0581395194     1.9480788563
  Sn    -4.2162441689     1.4064268646    -0.0324518889
  Sn    -2.1638729185    -0.0572436525    -1.5715969850
  Sn    -1.2842866019     2.2281787702     0.5469018057
  Sn     2.9894937080    -0.8687694218    -0.5110484545
  Sn     3.7004232690     2.1023306016    -0.3546621886
  Sn     0.5156687020    -1.4903922261    -2.1880944799
12
MoSn11_1 -2426.127540106 21193.850 19.94 Build 3D scale=1
  Mo    -0.3566592948    -0.5945119967     0.0592275516
  Sn    -0.6753514086     1.6699908129     2.0478216990
  Sn     3.9990339815     0.8741865212    -1.1601095270
  Sn     0.5388228339    -2.9786384009    -0.7675651624
  Sn    -2.8329742633    -1.6085701640     0.0088114037
  Sn     0.7820412755    -1.0784967131     2.4754269661
  Sn    -5.1307627118    -0.0161362227    -0.6040169373
  Sn    -0.0120558784     2.5689726932    -0.9036420866
  Sn    -2.5486541151     1.2490939530    -0.4527806370
  Sn     2.8941822024    -1.5352612587     0.2779906837
  Sn     2.0402361743     1.3994070768     1.0186145326
  Sn     1.3021412045     0.0499636991    -1.9997784863
12
MoSn11_5 -2426.115687267 21515.484 15.65 Build 3D scale=1
  Mo    -1.2851503522    -0.5887593129    -0.6738497461
  Sn     1.0450992138    -1.1345052948     0.8626502883
  Sn     3.7701282242    -0.5685368772     1.6006229544
  Sn    -1.9521076742     2.2620465870    -1.6016351375
  Sn     0.7684489478     1.0821758118    -1.5902575465
  Sn    -3.5577536242     0.7359126277     0.3431835911
  Sn    -0.6807320979     1.9774079237     1.1585099379
  Sn     3.3428997099    -0.5089593142    -1.3389776038
  Sn     2.4352916788     1.9613161190     0.8237488779
  Sn    -2.9298849558    -2.4697175495     0.1325106396
  Sn     0.5882877216    -2.0226437622    -1.9984760415
  Sn    -1.5445267917    -0.7257369583     2.2819697863
12
MoSn11_2 -2426.105646005 21204.353 13.74 Build 3D scale=1
  Mo    -1.3959780093    -1.1948218317     0.7069177519
  Sn     4.0838103462    -1.6253843509     0.9486116351
  Sn     3.1355267388     1.1504947348     1.1242008406
  Sn    -2.5707874981     1.5217764250    -0.8999321281
  Sn    -0.0816682175    -0.1582684784    -1.7042588552
  Sn    -4.2178542012    -0.5704701563     0.3273584885
  Sn     1.8841612117     2.2967509126    -1.3294981959
  Sn     3.1425554237    -0.3994061667    -1.5497244792
  Sn    -2.5549038345     0.8042980402     2.2876454845
  Sn    -2.5323221181    -1.6320476995    -1.8025722689
  Sn    -0.0873134861     1.4019350510     0.9722004040
  Sn     1.1947736442    -1.5948564802     0.9190513228
12
MoSn11_10 -2426.067516520 20830.657 12.90 MoSn11_2 x MoSn11_6
  Mo    -0.0798807768    -1.5423464374     0.5109127780
  Sn     4.7279905830    -0.6911537662    -0.5918276620
  Sn     3.4669116821     1.6401970415     0.6282546746
  Sn    -1.7391871897    -1.6708926638    -1.5506539139
  Sn    -4.0042152168     1.3089364942     1.2638593968
  Sn    -1.5839173978     1.1456289816    -0.4302522222
  Sn     1.0590510432     2.5624195218    -1.0953765462
  Sn     1.7231900011    -0.2533478805    -1.3202034664
  Sn    -4.2883572498    -0.1671411343    -1.3717472826
  Sn    -2.6159165042    -1.2068980398     1.4272355521
  Sn     0.7098843767     0.8199290014     1.5755956775
  Sn     2.6244466491    -1.9453311184     0.9542030142
12
MoSn11_6 -2426.054695832 20280.520 5.46 Build 3D scale=1
  Mo    -4.1989632036    -0.7334096233    -0.6047567323
  Sn    -2.4141395437     0.8198539330    -1.7093466446
  Sn    -4.5490288994     1.6331148782     0.4982490296
  Sn     0.1903388779     1.7543713087    -0.0278598824
  Sn     4.8739403781    -0.0709282265     0.2627140312
  Sn    -2.5904960132    -2.4936798898     0.5273131173
  Sn     3.0186215189    -2.3898853834    -0.2357988076
  Sn     0.0670659187    -1.3095113260    -0.4488877021
  Sn     2.5067965367     0.2517789125    -1.6426482867
  Sn     3.1819798518     2.4467447996     0.2982219025
  Sn     2.1372592666    -0.1233104151     1.5737864131
  Sn    -2.2233746888     0.2148610322     1.5090135621
