14
MoSn13_11 -2854.933830819 29526.180 27.13 MoSn13_7 x MoSn13_9
  Mo    -0.0000706442    -0.1585961877    -0.1565068879
  Sn     2.3456702569    -1.0696052525    -1.9230315013
  Sn    -2.7428771288     1.6090351597    -0.8099732223
  Sn    -3.1076681841    -0.6593398559     1.0692643342
  Sn    -2.3584794101    -1.0652432345    -1.9142555704
  Sn     2.7451809718     1.6007154538    -0.8205086557
  Sn    -1.4408951778    -2.9184095232     0.1259883238
  Sn     0.0066756254    -1.0318087310     2.4965800216
  Sn    -0.0084390432     0.8517444085    -2.7345596253
  Sn    -1.5216901421     1.7392288002     1.9603247821
  Sn     1.4321608761    -2.9205665075     0.1213205681
  Sn     0.0025257426     2.9521342644    -0.4276746164
  Sn     3.1097966609    -0.6676807599     1.0609734925
  Sn     1.5381095964     1.7383919655     1.9520585571
14
MoSn13_7 -2854.933779269 29526.046 25.19 MoSn13_5n x MoSn13_4n
  Mo    -0.0010995330    -0.1602368904    -0.1592887769
  Sn     2.7393302876     1.6048844771    -0.8164956851
  Sn    -3.1062205424    -0.6649876886     1.0673099882
  Sn    -2.3496202869    -1.0694063825    -1.9160478398
  Sn    -1.5283157539     1.7359174764     1.9570670823
  Sn     3.1088948349    -0.6650606423     1.0640218461
  Sn    -2.7490574096     1.6036203652    -0.8119152363
  Sn    -1.4387858337    -2.9241702138     0.1277190039
  Sn     1.5313816023     1.7402858440     1.9560662383
  Sn    -0.0037857034     2.9542769983    -0.4240213493
  Sn    -0.0040067673     0.8598662337    -2.7323917887
  Sn     0.0141065666    -1.0327204948     2.4949226102
  Sn     2.3534097537    -1.0646783084    -1.9223005190
  Sn     1.4337687852    -2.9175907739     0.1153544261
14
MoSn13_15 -2854.933769059 29525.396 27.04 MoSn13_12 x MoSn13_4p
  Mo    -0.0008490278    -0.1602040799    -0.1534215781
  Sn     3.1058490849    -0.6655579252     1.0659703682
  Sn    -2.3496331467    -1.0690425288    -1.9219256477
  Sn    -3.1122835145    -0.6598424192     1.0626574880
  Sn    -1.4395872586    -2.9172174070     0.1259866245
  Sn     0.0022117679    -1.0289417706     2.4993793306
  Sn     0.0014404579     0.8553336667    -2.7332605735
  Sn     0.0038010946     2.9533300122    -0.4289997935
  Sn     1.5289599054     1.7415247355     1.9535816558
  Sn    -1.5303516148     1.7415071633     1.9576731509
  Sn     1.4354129990    -2.9238755263     0.1248023229
  Sn     2.7464670744     1.6003714819    -0.8181547757
  Sn     2.3470967475    -1.0707924794    -1.9169781445
  Sn    -2.7385345689     1.6034070768    -0.8173104279
14
MoSn13_9 -2854.933764942 29526.522 26.85 MoSn13_7 x MoSn13_4n
  Mo    -0.0004300495    -0.1599078615     0.1577843453
  Sn     2.7411934660     1.6022103374     0.8329008309
  Sn    -2.3695452369    -1.0654718618     1.9086673791
  Sn    -3.0998505603    -0.6670751771    -1.0811468732
  Sn    -2.7467738314     1.6047026825     0.7998074070
  Sn     1.5428385217     1.7442463240    -1.9467562117
  Sn     0.0202966365    -1.0309691318    -2.4971079547
  Sn     1.4414796682    -2.9245654363    -0.1250134803
  Sn     3.1119923900    -0.6609428030    -1.0509128987
  Sn     2.3311823907    -1.0704923641     1.9282261776
  Sn    -0.0231652877     0.8580834506     2.7339752210
  Sn    -1.4309973443    -2.9185622869    -0.1210035749
  Sn     0.0014067638     2.9517268522     0.4245272131
  Sn    -1.5196275268     1.7370172758    -1.9639475806
14
MoSn13_18 -2854.933715329 29525.776 25.86 MoSn13_7 x MoSn13_7
  Mo    -0.0023049051    -0.1595144655     0.1560579070
  Sn     1.5628190341     1.7484976447    -1.9336379831
  Sn    -2.3914713909    -1.0602740243     1.8944642725
  Sn    -3.0963748586    -0.6609206316    -1.0982959081
  Sn     3.1189660742    -0.6641058119    -1.0329243860
  Sn     0.0032958150     2.9497274578     0.4327586293
  Sn    -2.7506704333     1.6103783815     0.7793857284
  Sn    -1.4376393461    -2.9132653559    -0.1262747888
  Sn     2.7380383266     1.5974595834     0.8523032558
  Sn    -0.0485049715     0.8474315067     2.7360986927
  Sn    -1.4969248216     1.7368198653    -1.9758705421
  Sn     2.3138040663    -1.0763266067     1.9386649200
  Sn     0.0516544703    -1.0287884039    -2.4967636382
  Sn     1.4353129405    -2.9271191395    -0.1259661593
14
MoSn13_17 -2854.933699489 29527.455 27.27 MoSn13_7 x MoSn13_12
  Mo    -0.0026678110    -0.1588288450     0.1537701177
  Sn    -2.4005291917    -1.0577531508     1.8942836938
  Sn     1.5669355701     1.7467367666    -1.9288696329
  Sn     2.2996793691    -1.0767930596     1.9458242858
  Sn    -1.4977798674     1.7326488802    -1.9796450035
  Sn    -1.4280834041    -2.9106682988    -0.1151837873
  Sn     0.0077406430     2.9539701249     0.4221991047
  Sn     2.7395866612     1.5958594978     0.8589208742
  Sn    -3.0944345988    -0.6677079337    -1.1024566918
  Sn    -2.7457853449     1.6094524493     0.7747786812
  Sn     1.4439548678    -2.9300179357    -0.1279552297
  Sn     0.0509344107    -1.0323621438    -2.4985109191
  Sn    -0.0581336369     0.8593215789     2.7302389260
  Sn     3.1185823330    -0.6638579303    -1.0273944193
14
MoSn13_10 -2854.921829894 29410.941 20.65 MoSn13_7 x MoSn13_3
  Mo    -0.0000036704    -0.0001392009     0.2028313884
  Sn     2.8860881060    -0.0550434134    -1.1640284619
  Sn    -2.8894093100     0.0558869491    -1.1622319855
  Sn    -0.0467910914    -2.4405031211     1.6257489490
  Sn    -1.4357960984     2.6566001188    -1.1142520894
  Sn     2.7569856463     1.3998752434     1.4665284298
  Sn    -2.6922026704     1.5034403451     1.4603482694
  Sn     1.4364925340    -2.6557620425    -1.1180783511
  Sn     1.5574702222     2.6003971857    -1.1054909236
  Sn    -0.0036099046     0.0006289553    -2.5450514222
  Sn    -2.7553704142    -1.3996911965     1.4698228341
  Sn     0.0496505283     2.4372207348     1.6284642663
  Sn     2.6934991602    -1.5039081564     1.4602980330
  Sn    -1.5570030374    -2.5990024013    -1.1049089362
14
MoSn13_12 -2854.917647420 29122.650 24.28 MoSn13_10 x MoSn13_2
  Mo    -0.1958306039    -0.2585732970     0.0052341418
  Sn     2.5989701161     0.4992546709     1.5489077791
  Sn    -3.1054129455     0.2258118010     1.4884967616
  Sn    -0.8213205334    -1.7479394100    -2.3202471069
  Sn    -0.2744130894     1.3053638848     2.4647020549
  Sn     1.8047263493    -2.0771917038     0.0009866681
  Sn    -0.8430171820    -1.7579729945     2.3143108479
  Sn    -0.2612567602     1.3129267049    -2.4639168948
  Sn     1.3878095314     2.7308026799     0.0082805549
  Sn    -1.7089032886     2.5105327605    -0.0027371466
  Sn    -2.6577197431    -2.3025375073    -0.0071151630
  Sn     2.5991074248     0.5047877211    -1.5343831248
  Sn     4.5696168355    -1.1694966131    -0.0025445996
  Sn    -3.0923561111     0.2242313027    -1.4999747727
14
MoSn13_5n -2854.864610671 28730.720 17.95 Build 3D scale=1
  Mo    -1.0079805843    -0.7320589545    -0.0824101216
  Sn     2.6183129713     0.8079439733     2.6834244403
  Sn    -3.3001232253     0.6821093382     1.6696078853
  Sn    -3.3222424963     0.9463436020    -1.5002725110
  Sn    -0.3974891954     0.2963451857     2.3416441475
  Sn     3.7264576565    -0.0808629134     0.0060301914
  Sn    -1.5095827221     2.5374208750     0.2029008771
  Sn    -3.4720749636    -1.7173137561    -0.1411757678
  Sn     1.6371637660    -1.8472845579     1.4134409690
  Sn     1.3477063089     2.0185818177     0.1765360604
  Sn    -0.3957716919     0.7266599215    -2.2709428469
  Sn     2.6342378810     1.2803463622    -2.4821983509
  Sn     1.6597778782    -1.5487006985    -1.7028185277
  Sn    -0.2183915830    -3.3695301952    -0.3137664453
14
MoSn13_2 -2854.852190213 28343.159 20.72 Build 3D scale=1
  Mo    -0.3898998853    -0.1799132403     0.4412961182
  Sn     4.0414422160     1.4002647083     1.1155980699
  Sn    -0.9743663489    -2.4991233536    -1.7855992399
  Sn     1.1462940091    -0.4633788068    -1.8157497166
  Sn    -2.7386758726    -0.1569602495    -1.2960646538
  Sn    -2.5066516886    -2.1966705936     1.0864977208
  Sn    -4.3002918681     2.1942970413    -0.6372898912
  Sn     1.3559667537     0.8155611032     2.2220952580
  Sn    -1.3320938562     2.3253781541    -0.2880026118
  Sn     1.5833827042     2.2732324235    -0.5588004054
  Sn     3.9565369467     0.1990737320    -1.7984454098
  Sn     0.2959885073    -2.9938190980     1.0040666123
  Sn    -2.9042329636     0.6427337661     1.7060217406
  Sn     2.7666013462    -1.3606755867     0.6043764088
14
MoSn13_6n -2854.830486139 27867.862 9.12 Build 3D scale=1
  Mo    -1.2759525564    -0.0297451817    -0.6619175585
  Sn    -1.4557122370     1.0689873214     2.3776989420
  Sn     0.8322249273    -0.7146525967     1.3515899501
  Sn     4.9404277001     1.4428676985    -0.6850605182
  Sn    -2.4009098668     2.6162145741    -0.0911332223
  Sn    -1.9670230351    -1.9292839690     1.5589289032
  Sn     3.0533519368     1.5234296313     1.5322431076
  Sn     0.2851919810    -2.0336315894    -1.3522487475
  Sn    -3.2886314836    -1.4725362609    -1.6240974944
  Sn     2.3385627460    -3.2034042772     0.4542708914
  Sn    -3.9247896603     0.2056626215     0.8985379268
  Sn     0.6093710476     1.9633034602    -0.1177285589
  Sn    -1.1617126344     1.3670338917    -2.8832827044
  Sn     3.4156011348    -0.8042453238    -0.7578009169
14
MoSn13_14 -2854.828178015 28802.965 19.98 MoSn13_9 x MoSn13_3
  Mo    -0.7245242773    -1.3409426976     1.8480020135
  Sn     0.4792053889     3.0347572472    -0.2201549153
  Sn     1.2649256278    -1.5773932563    -2.6561438816
  Sn     0.6774724186    -2.6782195130     0.0371128320
  Sn     3.4618468407    -1.0966680033    -0.5319787905
  Sn    -0.0373189282     1.3029887808     2.0716146827
  Sn    -0.5960736768     0.0593995457    -0.8892119999
  Sn    -2.6273349712     2.4238819900    -0.8374094211
  Sn    -2.8032258194    -2.2504269707     0.3541634776
  Sn    -2.9443264953     0.4904864565     1.4118824831
  Sn     2.2058735303     1.1941810279    -2.0070523984
  Sn    -3.4761182492    -0.2972302934    -1.7355186798
  Sn     3.1179891475     1.5988616332     0.8809158720
  Sn     2.0016094637    -0.8636759470     2.2737787255
14
MoSn13_16 -2854.826991523 28389.111 13.64 MoSn13_5n x MoSn13_2
  Mo    -0.0037626828    -0.2597313178     1.2907340968
  Sn     4.5196529111     0.2911805995    -0.1014508961
  Sn     0.0015789093    -0.0472665559    -1.4187985652
  Sn     2.5400595933    -0.1624097699     1.9145957927
  Sn     1.9730568740     2.0873028641    -0.2322900032
  Sn    -2.6511186085     0.2448949761    -2.6239099327
  Sn     0.0038238728     2.4738198412     1.9435953302
  Sn     2.6616089412     0.2227841108    -2.6197775690
  Sn     2.3237320007    -2.0572803143    -0.5404622828
  Sn    -1.9779102250     2.0859355596    -0.2190888284
  Sn    -2.5468785719    -0.1715047918     1.9165247887
  Sn    -4.5193870272     0.2827287137    -0.1088186247
  Sn    -2.3230397181    -2.0522086473    -0.5522502515
  Sn    -0.0014162690    -2.9382452679     1.3513969453
14
MoSn13_1 -2854.826430579 27299.742 15.24 Build 3D scale=1
  Mo    -1.2831909959    -0.2530369838    -0.5682308242
  Sn     3.4160422404     1.0823713548    -1.9559389680
  Sn     2.9010774160     1.3193998965     1.1741418421
  Sn     0.9985075937    -1.0227862998     1.6087729110
  Sn    -3.6308856347    -0.3708496343    -1.8445044306
  Sn     1.1346298601    -0.7890894263    -1.6457191369
  Sn    -0.9649593670     1.4924683658     2.0613809296
  Sn    -3.5090558710     1.0611750336     0.6857831955
  Sn    -1.8675482366    -1.3807540112     2.1521611386
  Sn     3.6269376442    -1.6189414419    -0.1107232187
  Sn    -0.7518712784    -2.8924957687    -0.2848097230
  Sn    -5.9873150105     0.8304359682    -0.7734777663
  Sn     5.5097516211     0.5860032967     0.0786487040
  Sn     0.4078800188     1.9560996505    -0.5774846532
14
MoSn13_4p -2854.824592523 28748.490 18.04 Build 3D scale=1
  Mo    -0.7143337217    -2.1158296871     0.8364255972
  Sn     2.8634110239     1.1055278745     2.2264473331
  Sn     2.3542076334     2.2191139810    -0.5243299592
  Sn    -3.1619368902    -2.2271951712    -0.5079779123
  Sn     3.6736601651    -0.5123452618    -0.2886576256
  Sn     1.8282943659     0.1351819561    -2.7601291297
  Sn     1.7344683939    -1.6488513216     1.8264219869
  Sn    -0.5197636979     2.4209320031    -1.4729897083
  Sn    -0.7241089994    -0.4952403518    -1.2987985423
  Sn    -3.5347272831     0.7275011075    -1.1859634921
  Sn    -2.5440625095     2.4938977586     1.0701641758
  Sn    -2.6677140416    -0.4451445813     1.8349535531
  Sn     1.3977374824    -2.5698583799    -1.1500319923
  Sn     0.0148680787     0.9123100738     1.3944657155
14
MoSn13_4n -2854.824555816 28744.408 17.00 Build 3D scale=1
  Mo    -0.7200667877    -2.1199522589     0.8133283879
  Sn     2.8659178672     1.0619914690     2.2479508756
  Sn     2.3559241466     2.2223768503    -0.4832551863
  Sn    -3.1755001842    -2.2182996818    -0.5120136596
  Sn     3.6778138469    -0.5117252773    -0.3003537647
  Sn     1.8264846711     0.1801803652    -2.7555004129
  Sn     1.7372635091    -1.6801671687     1.7972865199
  Sn    -0.5072060268     2.4330752271    -1.4602657892
  Sn    -0.7352640202    -0.4882311936    -1.3109350013
  Sn    -3.5388775708     0.7431920771    -1.1679237976
  Sn    -2.5150130488     2.5021709438     1.0799519136
  Sn    -2.6751375669    -0.4498267978     1.8379652720
  Sn     1.3892171238    -2.5567782699    -1.1860731489
  Sn     0.0144440405     0.8819937155     1.3998377916
14
MoSn13_8 -2854.806628368 28077.108 21.37 MoSn13_3 x MoSn13_2
  Mo    -1.3736206896    -1.8703916245    -0.7623120297
  Sn    -3.1015438687    -0.3545176752    -2.2596177685
  Sn    -1.4913539623     2.3864046591     1.5597803902
  Sn     4.5275682161     1.2525496704     0.3616316119
  Sn     1.2552146874    -2.2884264006    -0.7185942567
  Sn     1.6985959042     2.5294541340     0.4567027612
  Sn     2.3884471415     0.5177935354    -1.8159257910
  Sn    -2.4910185434    -2.7306325752     1.4979395284
  Sn     4.1487778006    -1.6866716527    -0.5266173718
  Sn     2.2592445198    -0.2951478040     1.3813492573
  Sn    -0.6508438203    -0.5496668609     2.0839806200
  Sn    -2.9977488227     2.4690783532    -1.0794859847
  Sn    -0.5690649925     0.6955752325    -0.8122652626
  Sn    -3.6026535703    -0.0754009914     0.6334342960
14
MoSn13_3 -2854.781778258 28357.165 19.31 Build 3D scale=1
  Mo    -1.5097103348    -0.6317583540    -2.0650293382
  Sn    -0.7331570801     1.9174747160    -2.2725503282
  Sn    -0.4479663121     1.6166486118     2.2771501020
  Sn     3.3355416100     1.2858141919    -0.5287575366
  Sn     0.6994685491    -2.1107030551    -2.2930661927
  Sn     5.0687016379    -0.5062359777     0.7397641194
  Sn     0.4331067747    -1.2458487197     2.4458444378
  Sn    -3.9094039881    -0.9427347055    -0.5747486700
  Sn     2.6053877048    -1.8397983950     0.0722046462
  Sn    -1.3919654237    -2.1936635673     0.2230423636
  Sn    -2.9418946192    -0.3391942061     2.2992002145
  Sn     0.9808905504     3.1460209130    -0.0613052823
  Sn     0.5085681395     0.1767572754    -0.2222893898
  Sn    -2.6975672084     1.6672212724    -0.0394591456
