5
MoSn4_13 -925.569509935 4063.743 58.21 MoSn4_9 x MoSn4_8
  Mo    -0.0027080135    -0.6849634974    -1.2749508897
  Sn     0.0140517135    -1.5638455722     1.1573628766
  Sn    -2.2610947940     0.2850304975    -0.3167977704
  Sn     2.2548634639     0.2986479450    -0.3244513237
  Sn    -0.0051123700     1.6651306271     0.7588371071
5
MoSn4_9 -925.569481592 4063.943 59.34 MoSn4_7 x MoSn4_6
  Mo    -0.0012364232    -0.6881688207    -1.2750438548
  Sn     0.0102195516    -1.5595746959     1.1604504844
  Sn    -2.2597539861     0.2838226110    -0.3168893133
  Sn     2.2554234104     0.2945608723    -0.3217891537
  Sn    -0.0046525527     1.6693600332     0.7532718375
5
MoSn4_3 -925.569468068 4063.490 58.75 Build 2D scale=1
  Mo    -0.0012499543    -0.6899677412    -1.2737957751
  Sn     0.0066066192    -1.5589886764     1.1622860755
  Sn     2.2555526541     0.2936823276    -0.3244594430
  Sn    -2.2593929209     0.2878260915    -0.3204250698
  Sn    -0.0015163981     1.6674479986     0.7563942124
5
MoSn4_11 -925.569467211 4063.407 58.68 MoSn4_3 x MoSn4_3
  Mo    -0.0003388961    -0.6806783133     1.2770194590
  Sn     0.0028264900    -1.5673833784    -1.1535989216
  Sn    -2.2591000264     0.2894777914     0.3166565642
  Sn     2.2582144844     0.2926491826     0.3178479240
  Sn    -0.0016020519     1.6659347177    -0.7579250257
5
MoSn4_12 -925.569461951 4063.683 58.17 MoSn4_9 x MoSn4_8
  Mo    -0.0008833470    -0.6869527991     1.2748652134
  Sn    -0.0053078955     1.6663987919    -0.7565481103
  Sn     2.2562377773     0.2968190507     0.3222603697
  Sn     0.0098913400    -1.5620729076    -1.1585975651
  Sn    -2.2599378747     0.2858078642     0.3180200923
5
MoSn4_15 -925.569451664 4063.226 58.21 MoSn4_3 x MoSn4_11
  Mo    -0.0004934619    -0.6902157151     1.2734165719
  Sn     0.0031195579    -1.5594085033    -1.1623873731
  Sn    -0.0009963549     1.6680491433    -0.7566103925
  Sn     2.2565320201     0.2922747796     0.3236602436
  Sn    -2.2581617612     0.2893002955     0.3219209501
5
MoSn4_16 -925.540001700 3961.550 14.64 MoSn4_6 x MoSn4_7
  Mo    -0.0017964442    -0.0004945451    -1.1581830068
  Sn    -1.5540843815    -1.5528978304     0.3323186226
  Sn     1.8400295678    -1.3110500057     0.2468871765
  Sn     1.5569523550     1.5517012459     0.3314778155
  Sn    -1.8411010970     1.3127411353     0.2474993922
5
MoSn4_6 -925.536909587 3874.350 9.48 Build 3D scale=1
  Mo    -0.0020252699    -0.0020967571    -0.9231281391
  Sn    -2.3899922278    -0.8157084518    -0.1767979435
  Sn     1.1069650551    -1.7650310855     0.6397699315
  Sn     2.3852862674     0.8165241014    -0.1796115758
  Sn    -1.1002338249     1.7663121930     0.6397677270
5
MoSn4_2 -925.524658111 3911.077 34.90 Build 2D scale=1
  Mo    -1.4819853681    -0.0049195368     1.1971625145
  Sn     0.4912260178     1.4488179960     0.2512186054
  Sn     0.4927058486    -1.4530238864     0.2414261753
  Sn     2.8520970832     0.0037597434    -0.5243669812
  Sn    -2.3540435815     0.0053656838    -1.1654403141
5
MoSn4_7 -925.524609033 3913.550 29.04 Build 3D scale=1
  Mo    -1.4918481891    -0.0103703773    -1.1951889974
  Sn     0.4911331624    -1.4544176525    -0.2474511721
  Sn    -2.3318592014     0.0103042621     1.1802199525
  Sn     2.8453394336     0.0070692647     0.5292487435
  Sn     0.4872347945     1.4474145030    -0.2668285266
5
MoSn4_10 -925.497751030 3855.179 14.80 MoSn4_3 x MoSn4_7
  Mo    -1.3803711559    -1.3771815947     0.0506260448
  Sn     2.8263032950     0.9404165871     0.1782248899
  Sn    -2.7174226113     0.8794110750     0.1342894486
  Sn     1.2588202001    -1.4921324803    -0.0605816566
  Sn     0.0126702721     1.0494864129    -0.3025587266
5
MoSn4_4 -925.497731442 3854.988 19.46 Build 2D scale=1
  Mo    -1.3867847264    -1.3797316605    -0.0568761978
  Sn     2.8372649239     0.9261609744    -0.1629617844
  Sn     1.2463503365    -1.4911104361     0.0661581681
  Sn    -2.7155839254     0.8824937839    -0.1136554896
  Sn     0.0187533914     1.0621873382     0.2673353037
5
MoSn4_1 -925.497726236 3854.425 24.80 Build 2D scale=1
  Mo    -1.3894864049    -1.3797785453    -0.0504436281
  Sn     0.0202130961     1.0652372701     0.2485818414
  Sn    -2.7170675451     0.8830506759    -0.1070372390
  Sn     2.8422632539     0.9226789332    -0.1510409960
  Sn     1.2440776000    -1.4911883339     0.0599400216
