17
MoSn16_11 -3497.994645369 40580.252 11.73 MoSn16_4 x MoSn16_1np
  Mo    -1.0598297471    -0.0272548762     0.0449802606
  Sn     3.2915702182     2.4558045398     0.4213688573
  Sn     4.2192649723     0.0241574407    -1.2432306344
  Sn    -1.0331590047    -0.3895037140    -2.8540060210
  Sn    -0.8460510246    -2.2564872209     1.7266711575
  Sn     1.4550014459     1.4366309810    -1.8962792174
  Sn    -3.7729064642    -1.2294203323     1.3536829425
  Sn    -3.8794158317    -0.0434266894    -1.3890429799
  Sn    -2.2173093554    -2.5733668967    -0.9754336766
  Sn    -1.8748617062     2.3120640408    -1.5719069314
  Sn    -3.4988634829     1.7672140282     0.9686582389
  Sn     1.6222541197    -0.1929269088     0.8912122378
  Sn    -1.7818460716     0.4124688922     2.9485429382
  Sn     3.5885896845    -2.4751356795     0.4213273025
  Sn     1.5646914525    -1.6801800196    -1.7904465255
  Sn     4.3125300342     0.0393696911     1.9375241613
  Sn    -0.0896592388     2.4199927236     1.0063778896
17
MoSn16_4 -3497.970942323 39510.819 7.21 Build 3D scale=1
  Mo    -1.4764617535    -0.1386391149    -0.2630258593
  Sn     2.9586065254     1.9422472882    -1.0114139892
  Sn     0.2099390334     1.3107042168     1.3334435936
  Sn     0.3662738813    -1.9650478282     0.5070697981
  Sn    -2.8209667981    -2.6659577638     0.8393730515
  Sn     2.8058403848     2.4484377126     1.9514352986
  Sn    -4.6000941131    -0.4177001997     0.2907337441
  Sn    -3.5962449072     1.1559251145    -1.9952426290
  Sn    -2.7686390023    -1.7674674696    -2.0847149415
  Sn    -1.2356967807     2.7080122753    -1.1105131385
  Sn    -3.2166756616     2.1096408567     1.0421135324
  Sn     3.2099385245    -1.4751079099    -1.6912722457
  Sn    -2.4143722110    -0.2728159827     2.6079433364
  Sn     0.7529569341     0.1199329243    -1.7588517233
  Sn     2.9239491628    -3.1219510286     0.8731356141
  Sn     3.4726748556    -0.2877287363     1.3242832123
  Sn     5.4289719256     0.3175156453    -0.8544966544
17
MoSn16_12 -3497.963434257 40523.974 11.28 MoSn16_6 x MoSn16_1p
  Mo    -1.0370555795    -0.1904885032    -0.4611812383
  Sn    -2.8222035342    -1.3305089475     1.9676413511
  Sn    -4.2513305177     0.8906134920     0.5835815011
  Sn     2.0858912897     1.9584968837     0.5476180430
  Sn    -3.6415702021    -1.3742613299    -1.1654909530
  Sn     4.0959066910     1.0827461493    -1.5698706441
  Sn    -1.8694602682    -3.2719182113     0.0448585794
  Sn    -2.0876572409     2.8726654090     0.4740935077
  Sn    -2.6272861731     1.3469183715    -2.1487653806
  Sn     0.5022459924    -2.5309104159    -1.4373109127
  Sn     1.3019870327     0.1881924204    -2.0919020740
  Sn     0.1174712989     2.7926249040    -1.4577917906
  Sn     2.0351587204     0.6352474127     3.2242185319
  Sn     4.1576907328    -0.2078010543     1.1975981468
  Sn    -0.8201746563     0.7616796213     2.0827207495
  Sn     3.5646925023    -2.0499633657    -1.0507197184
  Sn     1.2956939118    -1.5733328363     1.2607023013
17
MoSn16_14n -3497.962393986 41076.405 2.69 MoSn16_2p x MoSn16_8
  Mo    -0.4237880268    -0.2709267819     0.0113588921
  Sn    -1.0534293278    -0.9287367391    -3.4070897459
  Sn     3.8283326912     0.7808116548    -1.4221663258
  Sn     2.1044295471    -1.9809980640    -1.6036316409
  Sn     3.4481328878     2.2951215916     1.2897598401
  Sn    -1.7800964940    -2.8086339102     1.6237990922
  Sn    -0.7928528880    -2.8851889458    -1.1658132993
  Sn    -1.5985402131     2.4939177760     0.5005116131
  Sn     1.1214377522     2.9581190956    -0.5247547773
  Sn     2.2458813864    -0.3433087061     0.9862829802
  Sn    -4.5706974578     2.0466221779    -0.0774100871
  Sn     0.9877478586     0.7653078938    -2.3691527407
  Sn     1.3377190897    -3.2132236473     1.0847838531
  Sn    -2.9850513919    -0.1585279632     1.2382363559
  Sn     0.5104226469     1.7214257005     2.4526861009
  Sn     0.1909430477    -1.2035181343     3.0635740655
  Sn    -2.5705911082     0.7317370017    -1.6809741763
17
MoSn16_5 -3497.959309658 40628.205 12.61 Build 3D scale=1
  Mo    -0.3966019873    -0.0433576314     0.0568626738
  Sn     4.5151169330    -0.1600550174     0.8223281055
  Sn     0.5384055848    -3.0411002344    -0.3945200079
  Sn    -2.3807949530     2.6273751104    -0.5083770400
  Sn    -0.4903662211     2.8757187598     1.8072015805
  Sn    -4.9060661118    -0.8011358941     1.4310222668
  Sn    -2.2558614639    -2.3490480192     0.6766308507
  Sn    -3.5254778273    -0.0663294646    -1.1338841705
  Sn     3.5539049072    -2.9112753974     0.1801681972
  Sn    -2.3767252869     0.4703429860     1.8496930674
  Sn    -1.4825245218    -2.0125704027    -2.2529933778
  Sn     3.7220078014     2.0949383462    -1.1029791854
  Sn     2.1652729917    -0.5280570633    -1.1703905906
  Sn     2.0788395849     1.5425667986     1.4419165151
  Sn     0.7442041950     2.7926566719    -0.9963633447
  Sn    -1.0059621610     0.8664604557    -2.6327568032
  Sn     1.5026285360    -1.3571300040     1.9264412632
17
MoSn16_18n -3497.955828418 39490.889 14.48 MoSn16_14n x MoSn16_6
  Mo    -1.0585206823    -0.3938334214     0.0527909048
  Sn     4.4233356867    -0.1386465976    -0.4777332825
  Sn    -2.7633378740     1.4482227860    -1.3219329400
  Sn    -5.5868348759     0.8370709783    -0.6912872312
  Sn     3.6174516349    -2.1674500706     1.4953194239
  Sn    -3.6822792869    -1.4351648986    -1.1258479608
  Sn     3.1014571551     0.4370343521    -3.0212323963
  Sn     0.7031194244     1.9529991832     1.2402072886
  Sn     3.5081758699     1.0591362396     2.1412977600
  Sn     1.8382802046    -1.9501846296    -1.1976564591
  Sn    -2.1295060996     2.7152261643     1.2439861457
  Sn     0.6502601435     0.8896778097    -1.6264096462
  Sn    -1.1258245089    -2.8808932719    -1.1905544041
  Sn    -3.6921841291     0.2812765085     1.5205142119
  Sn     1.0402526687    -0.9824178534     1.6924207339
  Sn    -1.9737412823    -2.2792619103     1.8545830136
  Sn     3.1298959512     2.6072086316    -0.5884651622
17
MoSn16_16p -3497.952572093 40706.292 18.34 MoSn16_2n x MoSn16_8
  Mo    -0.9356814806    -0.9949765518    -0.0889291794
  Sn    -1.0835270276    -2.9584648091     2.1413351289
  Sn     3.6337889160     0.7602323030    -1.5257261761
  Sn    -3.1905820427    -1.6128829388    -1.7122175797
  Sn    -2.0701444967     2.7270372963     2.1714988471
  Sn    -0.9610460229    -3.5819055150    -0.8838092885
  Sn     1.6939089002    -2.0759572722    -1.5485098249
  Sn     3.3763201826     1.1834541345     1.6229009992
  Sn     0.3187479618     1.2020170879     1.2537359343
  Sn    -2.1950817132    -0.2780870702     2.4843119389
  Sn     4.1293831566    -1.5457608173     0.3601873852
  Sn    -2.1115672800     0.9841862313    -2.7299273419
  Sn    -3.4696091863     0.8984059042     0.0093209945
  Sn     0.5847597212     0.6601662546    -1.8744506293
  Sn     2.0575259685     3.0769425957    -0.4291558875
  Sn    -1.2250578807     3.2013142987    -0.6918502501
  Sn     1.4478623238    -1.6457211318     1.4412849294
17
MoSn16_16n -3497.952562048 40714.777 17.53 MoSn16_2n x MoSn16_8
  Mo    -0.9435680402    -0.9749862534     0.0843826421
  Sn    -1.0135788190    -3.5652861523     0.8838864274
  Sn     3.4008536438     1.1458113559    -1.6168584277
  Sn    -2.1949601594    -0.2614812793    -2.4859057535
  Sn    -2.1132723577     0.9923495896     2.7293576769
  Sn    -1.1002810495    -2.9496784824    -2.1358870322
  Sn     1.4406839796    -1.6562220701    -1.4429867925
  Sn     3.6371568451     0.7327380179     1.5349015936
  Sn     0.5880650075     0.6594800674     1.8858113917
  Sn    -3.2252450533    -1.5837704757     1.6913781413
  Sn     4.1172942418    -1.5836512735    -0.3384239660
  Sn    -2.0343121171     2.7439645430    -2.1730766669
  Sn    -3.4649205423     0.9378495749    -0.0164605633
  Sn     0.3384699817     1.1973558093    -1.2577765698
  Sn     2.0965480408     3.0577601179     0.4174658402
  Sn    -1.1863470890     3.1930952705     0.6968439994
  Sn     1.6574134871    -2.0853283596     1.5433480592
17
MoSn16_18p -3497.950697408 39834.891 12.95 MoSn16_14n x MoSn16_6
  Mo    -0.9490561246    -0.3817275522     0.0628774483
  Sn     4.1476190690     0.0163371391     0.7940920009
  Sn    -3.1385250662     0.9285558359    -1.5156372694
  Sn    -5.4429419555     0.9777032634     0.4259189405
  Sn     2.9081774008    -2.4803210450     1.8441658153
  Sn    -4.1712513215    -1.7054300705    -0.5509149558
  Sn     3.8655564426    -0.8656298191    -2.1232967621
  Sn     0.5343299175     1.9849421646     0.0061664703
  Sn     2.9544699232     2.6273298935     1.5698949490
  Sn     1.5007253567    -1.6788998963    -0.5598643944
  Sn    -2.4635377658     2.5891392033     0.7864225695
  Sn     0.8281289796     0.4278676539    -2.5907581581
  Sn    -1.5446789650    -1.7336701062    -2.2242274361
  Sn    -3.0599323763    -0.1144936251     1.7491326923
  Sn     1.2037201020     0.0084530882     2.2324697388
  Sn    -0.5128613107    -2.5944361572     1.5409629607
  Sn     3.3400576943     1.9942800297    -1.4474046098
17
MoSn16_1p -3497.947854087 40517.622 15.20 Build 3D scale=1
  Mo    -1.3353418389    -0.5252636086    -0.1439354189
  Sn    -0.4347068852    -2.8149323935    -1.6976822942
  Sn     0.9764007984    -1.7318683870     0.7451617015
  Sn    -0.8499569375    -0.1053777579     2.6858108799
  Sn    -3.6188880152    -0.7527854890     1.9395457371
  Sn     0.9063580907     2.8921765755    -2.3266911029
  Sn    -2.9408110416     2.1202990061     1.2046617581
  Sn    -3.2158258512    -2.5355602188    -0.5465190631
  Sn    -4.3323850391     0.3090678033    -0.8194470438
  Sn    -1.9278947288     1.6866923611    -1.7760642065
  Sn     2.7370984941     2.9629081973     0.1897672515
  Sn     3.8345383072     0.2605936733    -0.3923292563
  Sn     3.6812517224    -2.0138574718     1.5877926586
  Sn     2.6329528612     0.7992158465     2.4225355175
  Sn     2.9191987443    -2.3127705904    -1.6797384452
  Sn     0.0638349664     1.8157087522     0.5724376154
  Sn     0.9041763528    -0.0542462984    -1.9653062889
17
MoSn16_1np -3497.947784637 40521.359 12.40 Build 3D scale=1
  Mo    -1.3363294882    -0.5258091427    -0.1416096209
  Sn    -0.4273582386    -2.8182501491    -1.6972702418
  Sn     0.9707073891    -1.7320933768     0.7511843812
  Sn    -0.8513151283    -0.0969237251     2.6882941953
  Sn    -3.6170856166    -0.7513073354     1.9394644145
  Sn     0.9050181552     2.8912092774    -2.3307027224
  Sn    -2.9388580547     2.1235687809     1.2020474056
  Sn    -3.2093857334    -2.5398611016    -0.5476790126
  Sn    -4.3318455228     0.3070995660    -0.8206192134
  Sn    -1.9269915770     1.6815311032    -1.7791735878
  Sn     2.7362021068     2.9634069353     0.1840933444
  Sn     3.8352627264     0.2582874075    -0.3945287146
  Sn     3.6758599315    -2.0096722099     1.5923998810
  Sn     2.6305411456     0.8044408330     2.4196682082
  Sn     2.9182654145    -2.3179395036    -1.6729110216
  Sn     0.0641338855     1.8176542069     0.5696095611
  Sn     0.9031786051    -0.0553415660    -1.9622672561
17
MoSn16_8 -3497.942066885 40407.866 11.84 MoSn16_1p x MoSn16_2p
  Mo    -1.1413393440    -0.4143546767     0.3183498445
  Sn    -0.0166778324    -2.9860038105     1.2200958431
  Sn     4.2708221144     0.0024485594     1.8572444327
  Sn     1.4020414384    -0.2253872684     1.3409369959
  Sn    -4.0124108790     0.8449614365     1.4955086939
  Sn     0.7822070842    -0.1671447424    -3.5004147434
  Sn    -3.2430250217     1.5548216144    -1.1638377017
  Sn    -2.4137032235    -1.5086517798     2.4942253097
  Sn    -3.8838641987    -1.6046089933    -0.3344057244
  Sn    -1.9710574572    -0.7532452009    -2.3719622044
  Sn     3.3175041020    -2.5456585458     0.4126857033
  Sn     2.9396738789     2.3240671487     0.5979835263
  Sn     0.7215592214     4.1678415051     0.1655546442
  Sn     3.3072120337    -0.0306917387    -1.3307778223
  Sn    -1.2044720204     2.0577872562     1.4328572500
  Sn     0.2287075910     1.5895131682    -1.1911224900
  Sn     0.9168225128    -2.3056939320    -1.4429215574
17
MoSn16_9 -3497.910074899 39702.211 17.65 MoSn16_7 x MoSn16_1np
  Mo    -2.2103217936    -1.0722334629    -0.2293150622
  Sn     2.4234943978    -0.1635360027    -2.4151340487
  Sn    -0.1765224523    -2.6442952049    -0.8398543312
  Sn     1.7862544884     2.0641206995     0.0649231428
  Sn    -0.9455408967     3.4187560792    -0.7223270881
  Sn     1.8481391224    -2.5173684935     1.7323545014
  Sn    -3.4709710766    -3.1180080470     0.8203767538
  Sn     2.6733640683    -2.9206886676    -1.2591674613
  Sn     3.7087685228    -0.5784981311     0.5377154090
  Sn    -2.8887569172     1.6484810704     1.0200679893
  Sn    -0.5975587070    -0.4628397724     1.7261923997
  Sn    -4.8163393891    -0.5490120542    -0.6772964219
  Sn     1.9279443617     0.5286640888     2.8254244976
  Sn    -0.3137666896     0.4253454582    -1.5816807320
  Sn    -0.3021221670     2.7285459935     2.2290863438
  Sn    -3.0497213970     1.4891764331    -2.0358278494
  Sn     4.4036565247     1.7233900135    -1.1955380428
17
MoSn16_7 -3497.906847762 40095.160 9.08 MoSn16_2n x MoSn16_2p
  Mo    -0.5824504845    -1.5814783613     0.8872512548
  Sn     2.0396506873    -0.3915495944    -3.1436519979
  Sn     2.2035909084    -0.5879271123     1.7877076680
  Sn     0.6424882125     2.9618607532    -1.3030470783
  Sn    -4.5865778818     0.8700319182    -0.5990610723
  Sn     1.4489051652    -2.2078240537    -0.8678300357
  Sn     4.2366175400    -1.3355845107    -0.2809049712
  Sn     3.2089846188     1.2950054740    -0.9794718813
  Sn     1.0195613805    -3.4389788022     1.9966525775
  Sn    -3.1476059447    -0.7219527381     1.3292504424
  Sn    -0.5021766089     1.0516975267     1.5645653026
  Sn    -2.1583806208    -3.6509055253     0.1485839955
  Sn    -0.4346501414     3.9701937445     1.5472416498
  Sn    -0.4724245491     0.0684664046    -1.4614837502
  Sn    -2.2621009124     2.7032678838    -0.5132055689
  Sn    -2.9308768937    -1.4586164018    -1.7124586437
  Sn     2.2774455245     2.4542933947     1.5998621087
17
MoSn16_10 -3497.903463614 38432.718 3.39 MoSn16_6 x MoSn16_9
  Mo    -2.5326573759    -0.2729091090    -0.1664509539
  Sn     3.0799102123    -0.3651722316    -1.2936224806
  Sn    -3.1782995759    -1.2150151919     2.2467496128
  Sn    -2.8035408257     1.7723285718     2.3541965195
  Sn    -4.9629145335     1.1931916520     0.4445842478
  Sn     4.7778816655     0.6763567594     1.1937044071
  Sn    -1.5774724113     0.5082243125    -2.6249010832
  Sn    -1.4796030375     2.3647031983    -0.1299785252
  Sn     1.9432165302    -2.9876556962    -0.4728324693
  Sn    -5.0630685847    -1.2630181318    -1.0183070893
  Sn     1.9270417747     1.9270686242     1.1528880603
  Sn     2.4243929563    -1.1750007615     2.0959355502
  Sn     0.1145326322    -0.5996957008     0.2017513157
  Sn     1.0704004125     1.9387558835    -1.8307899160
  Sn     4.6997917313    -2.2995435148     0.3661212538
  Sn     3.9148600325     2.4742182058    -1.2304407602
  Sn    -2.3544716031    -2.6768368699    -1.2886076893
17
MoSn16_6 -3497.888908349 37985.926 11.31 Build 3D scale=1
  Mo    -1.4000014942    -0.4704417040     0.2129263831
  Sn     3.4697549682    -0.3259828570     0.9219041528
  Sn    -3.1794645375     0.1323544342     2.1782054261
  Sn    -3.2032052846     1.4052267393    -0.6230545602
  Sn    -5.8424361585     1.5296562433    -1.4995606095
  Sn     3.5163117784     0.3209607103    -2.3225627466
  Sn    -3.9416308016    -1.6045048245    -0.3885104251
  Sn    -5.8948318701     0.1620145557     1.0562480437
  Sn     2.8838507480     2.3857759627     2.1934763559
  Sn    -0.6829826146    -2.5164700532    -1.5343900979
  Sn     0.6750816438     0.2417785532    -1.6248781601
  Sn     2.0049128496     2.9615304473    -0.9725984476
  Sn     0.4592342372     1.2362143528     1.2276682371
  Sn     3.2525948913    -3.1131923436     1.4997248988
  Sn     4.8070363328     2.1033835336    -0.1981849266
  Sn     2.4755979573    -2.4761888776    -1.4171587863
  Sn     0.6001773546    -1.9721148725     1.2907452623
17
MoSn16_13 -3497.885544266 38840.699 7.07 MoSn16_6 x MoSn16_1p
  Mo    -2.1575936091    -0.7807668277    -0.4669004397
  Sn    -1.5679787839     4.1575128670    -0.5689773144
  Sn    -2.8150196465    -0.9796829111     2.1496591675
  Sn    -0.4466277396    -2.5620650197    -1.5112003714
  Sn    -2.9462202500    -3.6320780229    -0.6483430624
  Sn     5.0382704627    -1.7682060260     0.7109434942
  Sn    -4.8812610612    -1.5555484033    -0.2572961555
  Sn    -4.0243717366     1.4045676958    -0.2054265146
  Sn     2.0125174231     1.2151365869    -1.7957542330
  Sn     0.9571797250     3.0584257148     0.6900447966
  Sn     2.5727292517    -1.6224706015    -0.8712772792
  Sn     4.9508603776     0.3369898750    -1.4469422324
  Sn    -1.6848446567     1.9405394198     1.7070257236
  Sn    -1.1994095296     1.5396972382    -1.5724866144
  Sn     3.4704502302     1.0216840361     1.0424934972
  Sn     2.4271371947    -1.5498836263     2.2965559180
  Sn     0.2941823481    -0.2238519951     0.7478816201
17
MoSn16_2p -3497.875704981 40350.643 14.63 Build 3D scale=1
  Mo    -0.7236901276    -0.0039642164    -2.4459055370
  Sn     1.3749659799     1.3573467391     2.2147208695
  Sn     4.4228415994    -0.2607298039    -0.9978131937
  Sn     1.9249095292    -0.1141594838    -2.3951604335
  Sn    -4.6329444159     1.2721432870     0.3351231493
  Sn     3.2201848989     2.4102054754    -0.0785024842
  Sn     2.2362885971    -1.6029050394     0.7521524794
  Sn    -2.3367685084    -2.7278613707     1.2034609522
  Sn    -3.0836541758    -0.9906786721    -1.1046076997
  Sn    -2.5362984281     1.9119948081    -1.6425728209
  Sn     0.4675891919    -3.9668335600     0.7667339396
  Sn     0.3996656738     2.3365453818    -1.1776403453
  Sn     4.1593676417     0.2883143270     2.0245095834
  Sn    -0.4377264365    -0.1773911796     0.4194275806
  Sn    -2.7682600368     0.0690783114     2.3237937523
  Sn    -1.4959038167     2.6701131423     1.4362968440
  Sn    -0.1905671660    -2.4712181462    -1.6340166359
17
MoSn16_2n -3497.875511628 40190.876 7.74 Build 3D scale=1
  Mo    -0.7495282430    -0.3802519291     2.3960445251
  Sn     1.5059752117    -0.8517553544    -2.5342929695
  Sn     4.4180425502     0.0104271162     1.1025441345
  Sn     1.8799625966    -0.5693104457     2.3477947376
  Sn    -4.7292880108    -0.8192018605    -0.5394388134
  Sn     3.0210011473    -2.4309905981    -0.2942469943
  Sn     2.3019293418     1.5463199862    -0.5461089892
  Sn    -2.0717401814     3.0994371735    -0.7734675575
  Sn    -2.9351109202     1.0524330732     1.1862321838
  Sn    -2.7583551541    -1.9522709108     1.3963157198
  Sn     0.7755433151     4.0221999266    -0.2176745198
  Sn     0.1188122884    -2.7510810374     0.8906842406
  Sn     4.3610727519    -0.1046036040    -1.9106745898
  Sn    -0.4046398753    -0.0636070586    -0.4309296851
  Sn    -2.7101428610     0.5303099931    -2.2607096225
  Sn    -2.0739874891    -2.4454260701    -1.6243654501
  Sn     0.0504535319     2.1073715998     1.8122936500
17
MoSn16_17 -3497.868246999 39827.359 20.62 MoSn16_1np x MoSn16_2n
  Mo    -1.2871675985    -0.3295230216    -2.0668620375
  Sn     0.5743855287    -1.6390364671     2.2385528361
  Sn    -1.8215905844    -0.3222079590     0.6863995528
  Sn    -3.7662791637    -1.9684821184    -0.9187387456
  Sn    -0.7161912349    -2.6928072614    -0.8610478143
  Sn     1.7560338601     1.0636118905     1.3405083858
  Sn     4.2322344277     0.4675446950    -1.9950774322
  Sn     1.4184125980    -3.9697934308     0.6783488101
  Sn     1.3510301495    -0.0608296544    -1.8404199648
  Sn     2.4874957609     2.7756676895    -0.9703248911
  Sn     3.1153141440    -1.4912637475     0.2138567803
  Sn    -2.4575303514     2.5806483818     1.4285862379
  Sn    -4.6861969369     0.5874037740     0.8892486637
  Sn    -3.6872942013     0.9178895443    -1.9246675404
  Sn    -0.4975237034     0.9673817436     3.1978825076
  Sn    -0.7128006718     2.1076653677    -1.0421693413
  Sn     4.6976679774     1.0061305739     0.9459239932
17
MoSn16_15 -3497.858948497 39572.335 12.17 MoSn16_2p x MoSn16_14n
  Mo    -2.1239788420    -0.8728256226     2.2191281496
  Sn    -0.3800079423    -2.6807180758     1.1159289523
  Sn     4.1218218927     1.8595195229    -0.0317506820
  Sn     1.5516141026     2.1961872666     1.4388720480
  Sn     5.3865966534    -0.7995558415     0.6135941537
  Sn     0.3182126797    -0.1001365013     2.9144743954
  Sn    -0.2989325073     3.1464336689    -0.7014939468
  Sn    -3.9556324257     0.0856307346    -1.7749057507
  Sn    -3.4404967477    -2.2860971290     0.2706786122
  Sn     3.8869828891    -0.8650442405    -1.9706192064
  Sn    -3.3285892033     2.8314890573    -0.7849054839
  Sn     1.6302006072     1.1315291918    -1.6836940084
  Sn     2.5364127198    -0.8213028181     0.9368341712
  Sn    -1.3106733882     0.3513032842    -0.1329059659
  Sn    -1.7457057070    -1.9080937945    -2.2501175935
  Sn     1.1455977464    -2.1025578187    -1.4890289755
  Sn    -3.9934225273     0.8342391157     1.3099111307
17
MoSn16_3 -3497.843834359 39463.579 18.38 Build 3D scale=1
  Mo    -3.6604682483    -2.2714915239     0.0615053119
  Sn     0.5954247799    -1.2897204319     0.9806181548
  Sn     1.7679611119     2.8251090235     1.2044980665
  Sn    -3.4095034771     2.5975285020    -0.3373372301
  Sn     5.2800637821    -0.3744688496     0.1004657779
  Sn    -3.6895810139     0.0542741600     1.5300686750
  Sn     1.2908328930    -2.4510849201    -2.0338690594
  Sn    -1.5023224364    -3.0355990756    -1.1508597127
  Sn     3.0165476628     0.1651389121     2.1430988496
  Sn     2.9343199313     0.8108078569    -0.9417111406
  Sn    -1.8825184625    -2.6927801471     1.9457070058
  Sn    -0.1322423772     0.0995477481    -1.8313858325
  Sn    -0.8372588390     4.0549842079     0.1563664784
  Sn    -1.0367121010     1.2678141606     1.1998685663
  Sn     3.2546626373    -2.5080145447     0.3056046853
  Sn     1.0397075405     2.8727793586    -1.8822271888
  Sn    -3.0289133833    -0.1248244368    -1.4504114075
