10
MoSn9_13p -1997.454241721 15915.097 48.10 MoSn9_11 x MoSn9_12
  Mo    -0.0008197991    -0.0002975041     0.9183091189
  Sn    -2.4170644512    -1.2209047011     1.2793904726
  Sn    -0.1617007899    -2.8956059113     0.0757487348
  Sn     0.0965995096     1.7529068883    -1.6619293038
  Sn     0.1507544352     2.7019291268     1.2803661238
  Sn    -1.5698117478    -0.7938206477    -1.6614903940
  Sn    -2.4263096792     1.5903622633     0.0742786856
  Sn     2.5883259974     1.3092665322     0.0704063182
  Sn     1.4745673269    -0.9663515146    -1.6592157576
  Sn     2.2654591981    -1.4774845319     1.2841360014
10
MoSn9_15 -1997.454187549 15914.748 47.48 MoSn9_5 x MoSn9_12
  Mo    -0.0008875695    -0.0011100814     0.9183028980
  Sn    -1.0158253513    -2.7168606068     0.0722019579
  Sn     0.6148295067     1.6500121924    -1.6616608043
  Sn    -1.8451657984     2.2378728418     0.0746056652
  Sn    -1.7357309116    -0.2905443295    -1.6607718396
  Sn     0.9491990836     2.5315090511     1.2827054111
  Sn     1.1203325551    -1.3567078504    -1.6604619736
  Sn     1.7217870604    -2.0876276625     1.2809712179
  Sn    -2.6696428095    -0.4459420337     1.2812738121
  Sn     2.8611042345     0.4793984790     0.0728336553
10
MoSn9_12 -1997.435935507 15774.600 23.22 MoSn9_11 x MoSn9_8
  Mo    -0.0592655082    -0.0050949821    -0.8125588270
  Sn     0.4389819958     2.3476547418     0.7980105774
  Sn     2.3072807021     0.0061687978     1.4420913261
  Sn    -2.3670398021    -1.5239618048     0.2795816355
  Sn    -2.3590634461     1.5351247703     0.2501093410
  Sn     0.4324503868    -2.3367678321     0.8275260577
  Sn    -0.7501347981     0.0187689255     2.3665621620
  Sn     2.3078809151     1.4291892727    -1.3996835304
  Sn     2.3063881049    -1.4517526594    -1.3777425219
  Sn    -2.2574785502    -0.0193292298    -2.3738962206
10
MoSn9_13n -1997.435922108 15772.356 23.73 MoSn9_11 x MoSn9_12
  Mo    -0.0582656195    -0.1147416328    -0.8082048117
  Sn    -2.3382708687     1.5780583197     0.0196744394
  Sn     0.4645327863     2.4363707747     0.4634428800
  Sn     0.4048481324    -2.1996349295     1.1394569394
  Sn    -2.2619073679    -0.3557718831    -2.3454595383
  Sn    -0.7500879399     0.3622113700     2.3385096278
  Sn    -2.3873355706    -1.4440795413     0.4981815148
  Sn     2.2858649115    -1.6496300977    -1.1700698214
  Sn     2.3060242395     0.1834628549     1.4317271485
  Sn     2.3345972969     1.2037547652    -1.5672583785
10
MoSn9_14 -1997.434308073 15454.097 29.26 MoSn9_1 x MoSn9_5
  Mo    -0.0012741416    -0.0007697514     0.3392309869
  Sn     1.9360704855     0.4560249064     2.1290272957
  Sn    -1.3880583625     1.4392919879     2.1196735696
  Sn    -1.9935290393    -0.4662286906    -1.6390188921
  Sn     1.4075917723    -1.4757984107    -1.6469047294
  Sn     2.9802406026     0.7061972133    -0.5768552662
  Sn    -0.5742171238    -1.9267192218     2.1099565017
  Sn     0.5955875262     1.9626671874    -1.6312581893
  Sn    -0.8709010072    -2.9247901667    -0.6096834999
  Sn    -2.0915107123     2.2301249461    -0.5941677771
10
MoSn9_10 -1997.408400088 15589.195 23.85 MoSn9_6 x MoSn9_8
  Mo    -0.4143573206    -0.2032115685    -1.0431196304
  Sn     2.0429179662    -1.1378769919    -1.7118073589
  Sn     1.0738097275    -1.2552765294     1.1070920516
  Sn    -0.5108996814     1.3143977434     1.8392259532
  Sn    -2.4717333098    -1.8901904798    -1.2814249911
  Sn     3.8883999977    -0.3407708624     0.6486015851
  Sn    -2.9082308409     0.9012679367     0.1444275258
  Sn     1.8206166193     1.5378438757    -0.2141613596
  Sn    -1.7713651436    -1.5183315131     1.5766053944
  Sn    -0.7491580144     2.5921483891    -1.0654391701
10
MoSn9_6 -1997.408371712 15590.823 23.75 Build 3D scale=1
  Mo    -0.4154074275    -0.1997691442    -1.0441555815
  Sn     2.0400044052    -1.1385803703    -1.7144881194
  Sn     3.8851357108    -0.3396002098     0.6547431326
  Sn    -0.5099734484     1.3133640088     1.8393451431
  Sn    -2.4668142086    -1.8951082937    -1.2798849355
  Sn     1.8207701015     1.5335562799    -0.2229863044
  Sn    -2.9061280436     0.9000318299     0.1381477264
  Sn     1.0723526401    -1.2580119516     1.1050007340
  Sn    -1.7712993997    -1.5169237077     1.5789686623
  Sn    -0.7486403297     2.6010415586    -1.0546904577
10
MoSn9_16 -1997.408363733 15583.363 17.27 MoSn9_13n x MoSn9_4
  Mo    -0.4116220199    -0.2220635856    -1.0348350766
  Sn     1.0925834768    -1.2315534997     1.1371206006
  Sn    -1.7556523781    -1.5210502390     1.5709752852
  Sn    -0.5169452067     1.3272647759     1.8360052426
  Sn     2.0427401010    -1.1511793995    -1.6956170028
  Sn    -0.7596116969     2.5575764200    -1.0996963341
  Sn     1.8154787858     1.5467286521    -0.2076610715
  Sn     3.9083069391    -0.3291434185     0.6114063343
  Sn    -2.9188443390     0.9015379931     0.1597054561
  Sn    -2.4964336621    -1.8781176990    -1.2774034338
10
MoSn9_9 -1997.408334266 15237.198 21.42 MoSn9_5 x MoSn9_4
  Mo    -0.6921197347    -0.0000370008    -0.4527682705
  Sn    -2.7988220093    -1.5550199685     0.6384351036
  Sn    -0.0503807719     2.3330915529     1.1528768657
  Sn    -0.0554210339    -2.3293051155     1.1561428379
  Sn     1.8254106424     0.0025859339     1.6210947864
  Sn     1.6395619562    -1.4663355678    -1.1667499866
  Sn     4.1068173549    -0.0006861588    -0.3599713831
  Sn     1.6387752321     1.4582335313    -1.1750977920
  Sn    -2.7938925221     1.5630410554     0.6288468690
  Sn    -2.8199291138    -0.0055682619    -2.0428090303
10
MoSn9_8 -1997.408327460 15238.857 24.05 Build 3D scale=1
  Mo    -0.6890759020    -0.0004757404    -0.4568320358
  Sn    -0.0551694156    -2.3302670843     1.1498330437
  Sn     1.6453105072    -1.4623477147    -1.1683533871
  Sn    -0.0557454755     2.3267508523     1.1531701292
  Sn    -2.7974242735     1.5591844269     0.6331579374
  Sn     1.8244355216     0.0003373690     1.6225451498
  Sn    -2.8266833704     0.0022137800    -2.0352925424
  Sn     4.1095994217     0.0025102218    -0.3578031939
  Sn    -2.7974197934    -1.5597585113     0.6303838628
  Sn     1.6421727799     1.4618524006    -1.1708089637
10
MoSn9_11 -1997.404011132 15420.201 22.97 MoSn9_6 x MoSn9_9
  Mo    -0.7867358879    -0.6475967864    -0.0805468189
  Sn     0.8965207270     1.2718315823    -1.4182605911
  Sn     3.7280650142     0.5147705304    -0.7081145446
  Sn     0.3769128583    -2.5658584505     1.4054549452
  Sn    -2.4511951543     1.3269550192    -1.1906840684
  Sn     1.6589732651     0.3537362220     1.5152423322
  Sn    -0.4997111141     2.5837703099     0.8083029995
  Sn     1.6723399706    -1.5543491836    -1.1354421668
  Sn    -1.7285751620     0.3141914286     2.2000769285
  Sn    -2.8665945169    -1.5974506719    -1.3960290156
10
MoSn9_5 -1997.383955909 15032.546 15.87 Build 3D scale=1
  Mo    -1.3556809158    -0.0992212937     0.4977274179
  Sn     3.3555669022    -1.4214971134     0.7009378026
  Sn    -3.2987451914     1.6506451343     0.8931635546
  Sn    -1.6267176038    -0.6962593532    -2.0662628023
  Sn     1.5983821347    -0.1126177566    -1.6116179648
  Sn    -0.2629736784     2.1558586760    -0.7904076844
  Sn     3.6072341160     1.4435041005     0.0560893795
  Sn     1.1791390573     0.5977773425     1.5042775111
  Sn     0.5125705045    -2.1897699502     0.2886750200
  Sn    -3.7087753252    -1.3284197861     0.5274177659
10
MoSn9_7 -1997.381926369 14615.875 8.12 Build 3D scale=1
  Mo    -0.4295604413    -0.0739349477    -0.0162666099
  Sn     0.4232611630     1.3981662131     2.1370741009
  Sn     1.4068861318     1.6968609568    -1.0335230587
  Sn    -5.1715777314     0.1004081217    -0.4735468867
  Sn    -2.6640594749     1.4372338594    -0.1000525284
  Sn     1.5798920008    -1.3808039481    -1.3605215229
  Sn    -2.7177087947    -1.4267655723    -0.5394869670
  Sn     2.8440242291    -0.0326939179     1.1765665308
  Sn     0.6562597233    -1.9722876229     1.6652459563
  Sn     4.0725831945     0.2538168580    -1.4554890144
10
MoSn9_2n -1997.375927057 15072.562 21.97 Build 2D scale=1
  Mo    -1.6402947988    -0.0017990167    -0.4565041033
  Sn     3.9661947107    -0.0053019109    -0.4012676390
  Sn    -0.4099486872     2.4915468984    -0.7100685650
  Sn     2.1209851542     1.9540987351     0.8541750180
  Sn    -3.4751402792    -1.7170530604     0.2132751176
  Sn    -0.0083815472     0.0048364479     1.6159362705
  Sn    -0.4129812600    -2.4923164348    -0.7136708849
  Sn    -3.4732292605     1.7192943633     0.2035267488
  Sn     1.2192631064     0.0011385008    -1.4605577034
  Sn     2.1135328615    -1.9544445227     0.8551557407
10
MoSn9_1 -1997.374098394 15274.455 23.07 Build 2D scale=1
  Mo    -0.4201383456    -1.3282328487    -0.0411536831
  Sn     1.7123249054    -1.3885954305     1.5679740861
  Sn    -0.8915568972     1.1537891240    -1.7758067998
  Sn     0.5903619234     1.2957739158     0.9756761509
  Sn    -2.2945830807    -2.3162296559     1.6381818500
  Sn    -2.5107364144     0.3427314111     0.6096329642
  Sn     2.1274778212    -0.4255235396    -1.3728747213
  Sn    -0.2945005989    -1.3900317536    -2.8497340229
  Sn     3.5277656195     0.8842945482     0.8755170106
  Sn    -1.5464149327     3.1720242293     0.3725871653
10
MoSn9_3 -1997.373733388 15503.302 39.33 Build 2D scale=1
  Mo    -0.5895938472    -1.8811032347     0.3343306816
  Sn    -1.2490007109     1.0493552963    -1.4159852521
  Sn     1.9359288247    -1.7891188950     1.5371002055
  Sn    -2.4660475504    -0.4170473700     1.3937051131
  Sn    -2.1762645919     2.4321141551     1.1384719879
  Sn     0.4078257342     0.8678152802     1.2085856199
  Sn    -2.2736927470    -1.6659248564    -1.6687407327
  Sn     3.3092555812     0.6654434405     0.5931950975
  Sn     1.7668929319     1.7992170395    -1.7333238173
  Sn     1.3346963754    -1.0607508555    -1.3873389035
10
MoSn9_4 -1997.356592842 14523.788 6.27 Build 2D scale=1
  Mo    -0.0919560529    -0.6315748643    -0.1302282627
  Sn    -1.3543356498     1.4307066637     1.1642223283
  Sn     2.1801163102    -0.0946603216    -1.5086449382
  Sn    -0.4498759821    -2.6064140811     1.5562272917
  Sn    -1.0579411180    -2.4818092823    -1.7858926539
  Sn    -2.7016842851    -0.0829509357    -0.8952962685
  Sn     1.8490613671     1.3574545404     1.2777850071
  Sn    -3.9954108159     2.1844900485     0.1547499917
  Sn     3.2382419620     2.4418512949    -1.0475037821
  Sn     2.3837842646    -1.5170930625     1.2145812867
10
MoSn9_2p -1997.352590374 15122.345 19.92 Build 2D scale=1
  Mo    -1.9943659130    -1.0210080920    -0.6535679189
  Sn     4.4158979860     0.8926360045     0.3830626794
  Sn     0.2261922409    -2.8427448714    -0.3625320367
  Sn     2.6550597728    -1.2090678437    -0.1173021267
  Sn    -3.2534071416     1.2017346902    -1.2773610017
  Sn     0.2109398551    -0.0397570796    -1.7491227551
  Sn    -1.2521892540     2.0077858361     0.6841999641
  Sn    -2.9165577162    -0.4435159880     1.7501916009
  Sn     0.1353266695    -0.4650378448     1.5867997296
  Sn     1.7731035006     1.9189751886    -0.2443681350
