3
MoSn2_8 -496.826650554 1306.566 123.77 MoSn2_3 x MoSn2_3
  Mo    -0.0000053886    -1.4386159385     0.0000000000
  Sn    -1.4590703593     0.7193115290     0.0000000000
  Sn     1.4590757479     0.7193044095     0.0000000000
3
MoSn2_7 -496.826617085 1306.504 123.58 MoSn2_3 x MoSn2_3
  Mo    -0.0003039330    -1.4383470262     0.0000000000
  Sn    -1.4592662679     0.7193742081     0.0000000000
  Sn     1.4595702010     0.7189728180     0.0000000000
