6
MoSn5_12 -1139.954459672 6010.335 77.25 MoSn5_8 x MoSn5_3
  Mo    -0.0011683136    -0.0014663650     1.6079255617
  Sn     2.0405749053     0.8644469624     0.0856161415
  Sn     0.0008338562     0.0010586359    -1.9470873234
  Sn     0.8654554600    -2.0403108869     0.0844231587
  Sn    -2.0415915407    -0.8647640442     0.0835929221
  Sn    -0.8641043673     2.0410356978     0.0855295394
6
MoSn5_7 -1139.954402770 6010.049 77.01 Build 3D scale=1
  Mo    -0.0036772699    -0.0025841381    -1.6085180381
  Sn    -1.4548560197    -1.6719940032    -0.0820160712
  Sn    -1.6738118603     1.4525306862    -0.0828010089
  Sn     1.6755170822    -1.4514807273    -0.0874215748
  Sn     1.4517523498     1.6743416671    -0.0869937201
  Sn     0.0050757179    -0.0008134847     1.9477504131
6
MoSn5_13 -1139.954384096 6010.418 76.78 MoSn5_2 x MoSn5_10
  Mo    -0.0001716364    -0.0005984752    -1.6073551940
  Sn     2.1747973817    -0.4328538628    -0.0847870562
  Sn    -2.1744092432     0.4324604457    -0.0856955035
  Sn    -0.0009316429     0.0005611441     1.9470283619
  Sn     0.4332806945     2.1734831157    -0.0849414790
  Sn    -0.4325655537    -2.1730523674    -0.0842491292
6
MoSn5_10 -1139.954376748 6010.599 76.91 MoSn5_8 x MoSn5_4
  Mo    -0.0016010559    -0.0020175798    -1.6078163343
  Sn     2.0676503945     0.8007793836    -0.0855434956
  Sn    -0.8022626913     2.0656879703    -0.0873886550
  Sn     0.8013244379    -2.0661711137    -0.0839529894
  Sn    -2.0664332955    -0.8019414107    -0.0819299514
  Sn     0.0013222103     0.0036627502     1.9466314257
6
MoSn5_11 -1139.916905227 5699.596 36.23 MoSn5_2 x MoSn5_8
  Mo    -0.0743909959    -0.6595431102    -0.6459809081
  Sn     0.7923454621    -1.0139489302     1.7972978410
  Sn    -1.6967313020     1.5175231625     0.2908297633
  Sn    -2.6117834384    -1.1030498913    -0.5086679806
  Sn     1.0631775263     1.8617176387    -0.0408004499
  Sn     2.5273827479    -0.6026988693    -0.8926782658
6
MoSn5_4 -1139.907105015 5605.839 33.98 Build 2D scale=1
  Mo    -1.2115612522    -0.6572189722    -1.1179929128
  Sn     3.3155774165     0.3853355242     0.4527818487
  Sn    -1.9296650811    -1.2962738256     1.2353554202
  Sn     1.3004621788    -1.3622803446    -0.6087045635
  Sn    -2.1208252041     1.6514694445    -0.1848614993
  Sn     0.6460119421     1.2789681737     0.2234217066
6
MoSn5_5 -1139.907078766 5609.830 29.56 Build 3D scale=1
  Mo    -1.2175595141    -0.6645690600    -1.1170831077
  Sn     3.3048158562     0.3942262800     0.4666125528
  Sn     1.3043091518    -1.3554995331    -0.6234310996
  Sn    -2.1357673030     1.6372920729    -0.1744477533
  Sn     0.6403699683     1.2854612173     0.1980320357
  Sn    -1.8961681592    -1.2969109771     1.2503173721
6
MoSn5_9 -1139.907062940 5605.905 30.64 MoSn5_2 x MoSn5_7
  Mo    -1.2106116714    -0.6530276496     1.1196271195
  Sn    -1.9305218887    -1.2977736962    -1.2316764769
  Sn     3.3160722881     0.3852967463    -0.4571274283
  Sn    -2.1240253185     1.6493039592     0.1758151529
  Sn     1.3006186791    -1.3641334224     0.6056987601
  Sn     0.6484679114     1.2803340627    -0.2123371272
6
MoSn5_6 -1139.906979574 5608.688 30.03 Build 3D scale=1
  Mo    -1.2152002759    -0.6654289941     1.1148392726
  Sn    -1.9007459641    -1.2975002828    -1.2503087832
  Sn     1.3085453323    -1.3552802515     0.6257506621
  Sn    -2.1350791419     1.6399631108     0.1804396939
  Sn     3.3055754480     0.3974063007    -0.4664913062
  Sn     0.6369046016     1.2808401168    -0.2042295392
6
MoSn5_2 -1139.836960337 5407.433 9.03 Build 2D scale=1
  Mo    -2.3495620147    -1.0078614126     0.0111654109
  Sn    -2.7523528419     1.5527938689     0.0444834009
  Sn     2.4794685448     1.9114962153    -0.0621998478
  Sn     2.6864606095    -0.9325602057     0.1099401258
  Sn    -0.0314162596     0.6815040360    -0.0229354356
  Sn    -0.0325980380    -2.2053725018    -0.0804536542
6
MoSn5_1 -1139.828265317 5121.924 16.62 Build 2D scale=1
  Mo    -3.2705107036    -0.4030623127    -0.9655305388
  Sn     3.8913451013     0.1878984109     0.3720038661
  Sn    -0.7572989327    -0.2646175933    -0.5698290301
  Sn     1.5695065780     1.4607274361    -0.5401637354
  Sn     1.6829194095    -1.5395438904     0.3384604993
  Sn    -3.1159614524     0.5585979493     1.3650589389
6
MoSn5_3 -1139.813107729 4907.124 5.84 Build 2D scale=1
  Mo    -0.0039288645    -1.1806537288     1.2567814718
  Sn    -1.9439210918     0.2443872260     0.4145556453
  Sn     1.9728510542     0.1898644545     0.4095427885
  Sn    -0.0203713344    -1.9272355803    -1.1792523278
  Sn     4.2576612695     1.3442751402    -0.4536384380
  Sn    -4.2622910330     1.3293624885    -0.4479891398
