15
MoSn14_13 -3069.306913385 33561.321 22.77 MoSn14_10 x MoSn14_10
  Mo    -0.0001044245    -0.1108487632    -0.0002919134
  Sn     1.4617062389    -2.3729384304    -1.5116688487
  Sn    -1.9964936436     0.3859433069    -2.4460419863
  Sn     1.9933193974     0.3786384579    -2.4510769811
  Sn     1.9945002615     0.3873299791     2.4467438052
  Sn     3.3872982827    -0.6343301002    -0.0012664945
  Sn    -1.4726453888    -2.3692521517    -1.5171699435
  Sn    -1.4656651885    -2.3693454226     1.5156106086
  Sn    -2.5205979154     2.1754454434     0.0020472592
  Sn     0.0007933898     2.4809289238    -1.6669197348
  Sn     0.0032741050     2.4879912066     1.6602557372
  Sn     1.4674910267    -2.3689643774     1.5191294264
  Sn    -1.9885950891     0.3864609149     2.4505538532
  Sn    -3.3878714065    -0.6298309307     0.0054253486
  Sn     2.5235903543     2.1727719434    -0.0053301362
15
MoSn14_10 -3069.306887356 33560.209 22.58 MoSn14_1p x MoSn14_1n
  Mo    -0.0007645731    -0.1110374239    -0.0005257689
  Sn     1.4619618834    -2.3672521757    -1.5195554788
  Sn    -0.0006789411     2.4846486767     1.6661454370
  Sn    -1.4715403831    -2.3724445266    -1.5112278024
  Sn     2.5267051347     2.1720441444     0.0095629460
  Sn    -1.9850124303     0.3838681036    -2.4532968527
  Sn     0.0082652359     2.4830317377    -1.6632507693
  Sn     2.0022562679     0.3864535044    -2.4448070704
  Sn    -1.9999886210     0.3904004920     2.4446393415
  Sn     1.9855427990     0.3775776343     2.4506527531
  Sn    -1.4699752875    -2.3636713295     1.5201247790
  Sn     3.3865282932    -0.6365063669     0.0044297322
  Sn    -3.3896087418    -0.6273324502    -0.0060198621
  Sn    -2.5177619273     2.1776263126    -0.0089273527
  Sn     1.4640712911    -2.3774063330     1.5120559685
15
MoSn14_9 -3069.306849149 33560.421 23.37 MoSn14_1n x MoSn14_2
  Mo    -0.0004316903    -0.1106885602    -0.0056664318
  Sn    -1.4758786273    -2.3654934932    -1.5180100539
  Sn     2.0167304777     0.3827065970    -2.4447095589
  Sn    -3.3892620116    -0.6191143561     0.0044047784
  Sn     0.0115366399     2.4730403040    -1.6693705449
  Sn     1.4576212467    -2.3663023976    -1.5198378101
  Sn     1.4578529358    -2.3787645564     1.5137117225
  Sn    -1.9995664190     0.3893696860    -2.4485039519
  Sn    -1.9826723830     0.3875477541     2.4476892543
  Sn     2.5308286670     2.1686461096     0.0086737638
  Sn    -1.4761620715    -2.3715470175     1.5101498238
  Sn     0.0045946587     2.4929556322     1.6581964534
  Sn     3.3841517331    -0.6427403113     0.0119730728
  Sn     1.9766777476     0.3762775516     2.4520592298
  Sn    -2.5160209039     2.1841070579    -0.0007597472
15
MoSn14_1n -3069.306790746 33558.839 21.87 Population c
  Mo    -0.0001347020    -0.1102084177    -0.0014186601
  Sn    -2.0029869238     0.3847939792    -2.4446038895
  Sn    -1.4660714710    -2.3681066404    -1.5176140993
  Sn    -3.3869066234    -0.6393988753     0.0047282105
  Sn     1.4671311609    -2.3696804280    -1.5147397332
  Sn    -2.5261582409     2.1726753404     0.0007315996
  Sn    -0.0027238729     2.4793851532    -1.6647424487
  Sn     1.9953410082     0.3847580669    -2.4513409623
  Sn     1.9952674757     0.3882683559     2.4455096993
  Sn    -1.4595941986    -2.3713984225     1.5157651095
  Sn    -1.9933191375     0.3836011115     2.4511076893
  Sn     1.4734521872    -2.3672471076     1.5171985003
  Sn    -0.0029946855     2.4835858604     1.6614515768
  Sn     2.5221368201     2.1788189556    -0.0007020322
  Sn     3.3875612036    -0.6298469316    -0.0013305602
15
MoSn14_1p -3069.306790711 33558.654 21.89 Population c
  Mo    -0.0001324208    -0.1102102894     0.0014146946
  Sn     1.9953067242     0.3883275187    -2.4455229912
  Sn    -1.4597132557    -2.3714761054    -1.5157007776
  Sn    -1.9933136366     0.3835983766    -2.4511245888
  Sn     1.4734127746    -2.3672454408    -1.5172332044
  Sn    -0.0029803027     2.4836217969    -1.6614339128
  Sn     2.5221281981     2.1787825377     0.0007514560
  Sn     3.3875838851    -0.6298439133     0.0013046543
  Sn    -2.0030114094     0.3848608760     2.4446093757
  Sn    -1.4660167190    -2.3681118276     1.5176641290
  Sn    -3.3869296712    -0.6394067191    -0.0046955255
  Sn     1.4672553856    -2.3697403463     1.5146835916
  Sn    -2.5261570446     2.1726378835    -0.0007858316
  Sn    -0.0027492365     2.4794332721     1.6647156016
  Sn     1.9953167288     0.3847723803     2.4513533290
15
MoSn14_15np -3069.299424431 33627.213 16.29 MoSn14_5 x MoSn14_2
  Mo    -0.0023993849    -0.0074008833     0.0107320373
  Sn    -0.7143459042     0.0266805374    -2.7140995354
  Sn     3.2448450587     0.0625681693     0.6289144834
  Sn    -0.1095474384    -3.0315048559    -1.0985201952
  Sn    -2.7673828571     1.5657662565    -1.0142305231
  Sn     2.2057886585     1.5677060351    -1.7396015448
  Sn     1.8310327842    -2.4727527308     1.2001312001
  Sn     2.2857252905    -1.5088063127    -1.7210961358
  Sn    -0.2418560538     3.0341162887    -1.0777833305
  Sn    -1.2914415714    -2.4690642230     1.5664226887
  Sn    -2.6995063678    -1.6473544835    -1.0578698364
  Sn    -2.9035311175    -0.0751309709     1.5158959072
  Sn     0.7695173634     0.0249522466     2.7177862538
  Sn    -1.3606917234     2.3921891164     1.6046637840
  Sn     1.7537932633     2.5380358101     1.1786547466
15
MoSn14_19 -3069.299406934 33623.176 16.29 MoSn14_15np x MoSn14_17nn
  Mo    -0.0065139567    -0.0047393265     0.0393961218
  Sn    -2.9400287202    -0.1117926106     1.5514251973
  Sn     1.7470932080     2.5467211437     1.1516392345
  Sn    -1.2444531646    -2.4479534063     1.5719092801
  Sn    -2.7987994997     1.5338913079    -0.9739318406
  Sn     0.8945326986     0.0221490612     2.7184992721
  Sn    -0.3067185127     3.0441995773    -1.0680093455
  Sn    -1.3517225720     2.3348147642     1.6323281507
  Sn     1.8733249514    -2.4552076539     1.1670570102
  Sn    -0.1063410438    -3.0401071327    -1.1021083425
  Sn    -2.6988799133    -1.6544998048    -1.0383696786
  Sn    -0.7408194732     0.0320622872    -2.7014698625
  Sn     2.1471471833     1.5816137168    -1.7676174674
  Sn     2.2582514543    -1.4758218164    -1.7531684685
  Sn     3.2739273605     0.0946698928     0.5724207388
15
MoSn14_2 -3069.299351770 33625.025 16.81 Population c
  Mo    -0.0043719790    -0.0051417851    -0.0142225809
  Sn     0.7535355729     0.0124793981    -2.7202437484
  Sn     1.8577703412    -2.4554671380    -1.2009882506
  Sn    -1.2838724271    -2.4985500776    -1.5511740612
  Sn     3.2384923031     0.1021249986    -0.6399872095
  Sn    -2.9026585652    -0.1113985018    -1.5029411363
  Sn    -1.3982953422     2.3763273551    -1.6073191987
  Sn     1.7195285351     2.5548953200    -1.1938162072
  Sn    -0.6898593351     0.0334512457     2.7150149439
  Sn    -2.6744857538    -1.6717811555     1.0786697434
  Sn    -2.7826353722     1.5377335922     1.0205855941
  Sn    -0.0667372217    -3.0259662693     1.1029002066
  Sn    -0.2718204917     3.0358971495     1.0657814948
  Sn     2.1922170987     1.5939056710     1.7312378071
  Sn     2.3131926370    -1.4785098029     1.7165026030
15
MoSn14_14 -3069.299336657 33625.601 15.90 MoSn14_9 x MoSn14_5
  Mo    -0.0024251271    -0.0034672013    -0.0009223742
  Sn    -2.6397920261    -1.7441795869    -1.0612576068
  Sn    -0.3339219428     3.0184757575    -1.0792801903
  Sn    -1.2110359870    -2.5332501903     1.5621718545
  Sn    -2.8714168939    -0.1710198742     1.5087693523
  Sn    -0.7219796606     0.0001487260    -2.7194530202
  Sn     2.3554308694    -1.4329048796    -1.7161228884
  Sn     1.6586405417     2.6002092540     1.1902274140
  Sn     1.9138307327    -2.4151817672     1.2056180701
  Sn    -2.8180567501     1.4761405973    -1.0192959803
  Sn     0.0068174231    -3.0187574272    -1.1005377932
  Sn    -1.4527623123     2.3651790837     1.5989635544
  Sn     2.1632463651     1.6432393392    -1.7307278000
  Sn     3.2255314798     0.1739072190     0.6464001173
  Sn     0.7278932882     0.0414609500     2.7154472907
15
MoSn14_17p -3069.286076758 33293.697 14.30 MoSn14_10 x MoSn14_16
  Mo    -0.0001202921    -0.0056268404    -0.0363898809
  Sn    -1.4855788161     0.0294472622     2.6905088882
  Sn     1.9697219942     2.2992381037     1.0460769912
  Sn    -1.9676768212    -2.2979168686     1.0446127272
  Sn     0.0422367719     3.3577936353    -0.8438498431
  Sn    -0.0410530209    -3.3573333025    -0.8436689183
  Sn     1.4799742096    -0.0281874259     2.6894325365
  Sn    -1.8582826957     1.4415872494    -2.0344617438
  Sn     1.9297168327    -2.3567429075     1.0344374233
  Sn     1.9368604862     1.4240255395    -2.0252422615
  Sn    -3.4864848578     0.0426219798     0.1527401538
  Sn     3.4871875371    -0.0420216897     0.1571652832
  Sn    -1.9345502465    -1.4232800641    -2.0286192556
  Sn     1.8612266918    -1.4396818803    -2.0345731874
  Sn    -1.9331777732     2.3560772090     1.0318310872
15
MoSn14_17nn -3069.285957882 33289.887 13.22 MoSn14_10 x MoSn14_16
  Mo    -0.0009702442    -0.0118662021     0.0343740085
  Sn     1.4430962052    -0.0270545179    -2.6858358053
  Sn    -1.9413053518     2.3057698356    -1.0397593771
  Sn     1.9938039223    -2.3407319247    -1.0298607189
  Sn    -0.0061757425     3.3816209558     0.8331721079
  Sn     0.0242575749    -3.3267006227     0.8630464210
  Sn    -1.5258236529    -0.0250194933    -2.6903781636
  Sn     1.8995313702     1.4564817050     2.0052051461
  Sn    -1.9476832882    -2.3424002927    -1.0188894762
  Sn    -1.8747596047     1.4296825647     2.0334324514
  Sn     3.4813546232     0.0258461702    -0.1799460834
  Sn    -3.4878111922    -0.0123043172    -0.1326986120
  Sn     1.9344146052    -1.4081131714     2.0314070578
  Sn    -1.9031646900    -1.4360984412     2.0511692632
  Sn     1.9112354656     2.3308877519    -1.0744382193
15
MoSn14_17np -3069.285917302 33289.715 11.89 MoSn14_10 x MoSn14_16
  Mo    -0.0019834157    -0.0047921799     0.0292014692
  Sn     1.4547945893     0.0251642020    -2.6866088460
  Sn    -1.9667537311     2.2892807341    -1.0405310465
  Sn     1.9931481933    -2.2989223609    -1.0474277999
  Sn    -0.0435654313     3.3676524685     0.8393097542
  Sn     0.0572263624    -3.3551289958     0.8407831629
  Sn    -1.5119302681    -0.0394591918    -2.6905358531
  Sn     1.8552721732     1.4464709128     2.0257851593
  Sn    -1.9303803839    -2.3603688324    -1.0218424072
  Sn    -1.9242618138     1.4208575383     2.0313368829
  Sn     3.4848152086     0.0560608089    -0.1639703901
  Sn    -3.4870067642    -0.0468862049    -0.1359842870
  Sn     1.9463039713    -1.4182674908     2.0237017465
  Sn    -1.8501858070    -1.4452181059     2.0429895408
  Sn     1.9245071170     2.3635566978    -1.0462070861
15
MoSn14_18 -3069.277237666 33108.508 16.93 MoSn14_15p x MoSn14_1n
  Mo    -0.2347358859    -0.1333555867    -0.0076166373
  Sn     2.4564392381    -1.7646202804    -1.0876926505
  Sn    -0.0738436607    -3.0807396335    -0.4397122148
  Sn    -1.9820334782     0.9375112400    -2.1698109576
  Sn     4.4966697053    -0.8314575757     1.0099397806
  Sn    -2.5142403438    -1.9411705070    -1.4953236124
  Sn    -1.4865168602     0.5082397737     2.6695729693
  Sn     1.7331901423    -0.7151653303     1.7543845201
  Sn    -2.0105667549    -2.2819680136     1.6167152880
  Sn     0.4880769276     2.8332855963    -1.3291703329
  Sn     1.0165081600     0.2149750221    -2.7228430868
  Sn     2.8160313971     1.3128841609    -0.3928466448
  Sn    -3.5233259463    -0.0091401251     0.4788793736
  Sn     0.8459572175     2.4052645430     1.6404606791
  Sn    -2.0276098581     2.5454567162     0.4750635263
15
MoSn14_15p -3069.274378851 33151.928 11.75 MoSn14_5 x MoSn14_2
  Mo    -0.2455005810    -0.1819402000     0.1236543747
  Sn     1.9345651658    -0.9606465867     1.7706420676
  Sn    -3.2905370038     1.1365380459     0.4582018781
  Sn    -0.9516878177    -2.9043189182     0.6364383616
  Sn     4.2915011316     0.8585604765     1.3888234994
  Sn    -1.0098550133     1.4518065459     2.4918675544
  Sn    -3.0223196991    -1.4924627650    -0.9307127295
  Sn    -2.5400719879    -1.1017375219     2.2267466042
  Sn     1.6824744094     1.9127807062     0.6426030499
  Sn     0.4144639320    -1.2659127903    -2.5175181134
  Sn     1.7852780012    -2.9407918651    -0.4419526227
  Sn     2.9810250172    -0.2602907645    -1.1377448071
  Sn    -1.9576232586     0.9587412828    -2.2700446873
  Sn     1.0460793156     1.7710782690    -2.2721060410
  Sn    -1.1177916114     3.0185960854    -0.1688983887
15
MoSn14_12 -3069.268978053 32498.305 21.51 MoSn14_1p x MoSn14_7
  Mo    -0.5081934472    -0.0225662025     0.0737149885
  Sn     2.4245759587    -0.2135545896    -1.6804351235
  Sn     4.4589012918    -1.1872681195     0.5186632004
  Sn     1.5127732911     2.3753412945    -0.7229769944
  Sn     1.8835016702     0.1538416147     1.4549584788
  Sn    -1.3449312295     2.9971237375    -0.7269542251
  Sn    -1.1980894095     1.8609406090     2.0770511559
  Sn     1.7685740595    -2.5944698775     0.0527012923
  Sn    -3.3386225742    -1.5829824926    -0.6192149918
  Sn    -0.5028706007    -1.9922480566    -2.0260563790
  Sn     4.2096832592     1.7469074613     0.4554667764
  Sn    -1.0796675425    -2.7114829406     1.0606016537
  Sn    -1.9473526505     0.5992135267    -2.3911287079
  Sn    -3.5958678412     1.2501426208     0.1958448035
  Sn    -2.7424142353    -0.6789385857     2.2777640721
15
MoSn14_16 -3069.268927471 32500.057 20.37 MoSn14_1p x MoSn14_15nn
  Mo    -0.5081970761    -0.0268423335    -0.0742923730
  Sn    -1.9476642088     0.5997842860     2.3877233551
  Sn     1.8842812114     0.1482548097    -1.4541033685
  Sn     4.4624216244    -1.1829578309    -0.5169154110
  Sn    -3.3366091544    -1.5822101678     0.6169388285
  Sn    -1.0821975991    -2.7173183655    -1.0599134221
  Sn    -1.3510599171     3.0013532008     0.7307119723
  Sn    -3.5957815901     1.2499577683    -0.1994864088
  Sn     1.7678037114    -2.5938178777    -0.0495928005
  Sn     4.2030876487     1.7534476427    -0.4556018118
  Sn     2.4276017430    -0.2115754000     1.6815033936
  Sn    -2.7377049027    -0.6788908115    -2.2803802250
  Sn    -0.5026350788    -1.9914908795     2.0294618710
  Sn     1.5036765462     2.3708516816     0.7190565832
  Sn    -1.1870229581     1.8614542774    -2.0751101831
15
MoSn14_15nn -3069.245449126 32914.949 10.48 MoSn14_5 x MoSn14_2
  Mo    -0.5585888840    -0.4042647165    -0.1136760206
  Sn     1.8415455553    -0.8876329088     2.0737285172
  Sn    -2.7808556862     2.1748365820     0.1588117343
  Sn    -2.3584847166    -2.6508703944     0.7500143952
  Sn     4.2459383055     0.1384444934     0.3632018762
  Sn    -0.3400458040     1.3042714015     2.1900142995
  Sn    -3.3376205076    -0.5241228262    -0.9977205380
  Sn    -2.8761190668    -0.1375413883     2.1463585825
  Sn     2.3719602482     2.1944456640     1.3035056268
  Sn     0.1778301316    -1.4291384377    -2.6235849420
  Sn     0.4770643340    -3.0529842869     0.5695936310
  Sn     2.6012111030    -1.8449453038    -0.9944069825
  Sn    -1.4934604777     1.2197886437    -2.5213837979
  Sn     2.0557233905     1.0469795223    -1.8022878369
  Sn    -0.0260979252     2.8527339557    -0.5021685448
15
MoSn14_20 -3069.240116434 31471.450 11.68 MoSn14_17p x MoSn14_15p
  Mo    -1.2804663353    -0.3079017244    -0.3746874764
  Sn    -4.3296296719     0.6559746859     0.0810138725
  Sn    -3.4143589848    -2.0430732028     0.8528100073
  Sn    -0.4653907109    -2.0283331140     1.6743911183
  Sn    -2.4205675936     1.6981530689    -2.1121404778
  Sn     3.6827829562    -2.2438420738    -0.8138385778
  Sn     3.2725169881     2.3468270322     1.0033615445
  Sn    -3.1974560620    -1.1917754071    -2.1260494903
  Sn     2.3468502890    -0.6977504948     1.5599535082
  Sn     0.9489281339    -1.4302375010    -1.3538813783
  Sn    -1.9706614725     2.5968907488     0.7028063718
  Sn     5.1165033507     0.1208586924     0.4070376661
  Sn    -2.2902351858     0.2942965233     2.4278667413
  Sn     3.2580625720     0.7886602224    -1.8443039204
  Sn     0.7431217269     1.4412525439    -0.0843395090
15
MoSn14_5 -3069.201784520 31882.693 20.78 Build 3D scale=1
  Mo    -1.2860432515    -0.1107988868    -0.7245875810
  Sn     3.2003602839     2.7814151796    -0.5403144179
  Sn    -2.4976324875    -0.6661370108     2.2499537661
  Sn    -2.2532396560     0.3617847080    -3.0972624883
  Sn     3.5728669771    -2.4665866077    -1.1136098642
  Sn    -0.9226330141    -2.7605888157     0.7870741359
  Sn    -3.6226334648     1.2526268091     0.0514960645
  Sn    -3.4418623181    -1.8425226643    -0.6934223730
  Sn     0.9085658795     4.0939648049     0.7326320194
  Sn     0.5897228004     1.7181525151    -1.1795976339
  Sn     3.4312340549     0.0192407416     0.3843130084
  Sn     2.1484690896    -2.8040631517     1.5051190601
  Sn    -1.2367464115     2.1772223043     1.5548016524
  Sn     0.8912140185    -1.5573130274    -1.4770831651
  Sn     0.5183574996    -0.1963968982     1.5604878166
15
MoSn14_7 -3069.199324331 31371.425 10.22 Build 3D scale=1
  Mo    -0.6518305942    -1.3614440491    -0.1004978954
  Sn    -2.8560251250    -0.3105284311    -1.2636720862
  Sn    -2.6849195075    -1.9711917376     1.6128878377
  Sn     3.8096265456    -0.6282145375     0.4971904132
  Sn    -2.2335267191     1.0135469459     1.6238084338
  Sn     3.3816707547     1.6063677172     2.3153121038
  Sn     1.4891278399    -0.9259575998    -1.7574341084
  Sn     2.6528115038     2.2050911498    -0.5002855635
  Sn    -2.5607369929     3.2445629496    -0.6263483269
  Sn     0.8288108478     0.2491582304     1.7382099835
  Sn    -4.8503344603     1.4123384986    -0.3063197103
  Sn     1.5332583306    -2.7450810077     0.8575032890
  Sn     4.0992837912     0.3193435936    -2.2460152699
  Sn    -0.2689449433     1.4954038596    -0.8723266622
  Sn    -1.6882712714    -3.6033955816    -0.9720124384
15
MoSn14_6 -3069.188600029 31641.398 15.07 Build 3D scale=1
  Mo    -1.9514026511    -1.0015315816     0.0656393516
  Sn    -3.6582303041    -1.5869238917    -1.8110139381
  Sn     2.5113157601    -1.0171603828    -2.2438781839
  Sn     2.6109514413    -2.3106230478     0.7346702036
  Sn     0.0979225597    -2.6961339451    -0.8885888195
  Sn    -0.0852118395     1.5336845418     1.2403494140
  Sn     4.4692405228    -0.2604209320    -0.0156314105
  Sn    -0.1714415368     3.1581547298    -1.5448273585
  Sn    -0.1638785553     0.2533987858    -1.6910185642
  Sn     2.5378829522     0.5084777127     2.3119795729
  Sn    -3.0054484656     1.3726543032     0.2800267568
  Sn    -1.7864504181     3.9727930595     0.8222918987
  Sn     2.4110678425     1.8323129795    -0.6443341734
  Sn    -0.0282249753    -1.4473969585     2.0577182130
  Sn    -3.7880923328    -2.3112853727     1.3266170377
15
MoSn14_3 -3069.175082790 30870.923 8.57 Build 3D scale=1
  Mo    -1.3800679288    -0.2632352856     0.0304707712
  Sn    -2.4847800938     2.8613777396     0.9196734062
  Sn     0.2659364916    -0.5956530152    -2.1913005126
  Sn    -1.9009323702    -2.7362242860    -1.1241179719
  Sn    -0.8662527913     2.1354334924    -1.7214571123
  Sn     3.4446896751    -0.9010681465     0.1284881754
  Sn    -3.3036351390     0.3350091861     2.1679204790
  Sn    -3.8202752721     1.0604033826    -0.9704264755
  Sn    -0.2995004483    -1.8473158533     1.8472968338
  Sn     0.2162515705     1.6157073876     1.2541523806
  Sn     1.2625599066    -2.7694120751    -0.4938231145
  Sn     4.9337140152     1.6422427686    -0.1393730501
  Sn    -4.2693610261    -1.5637157223     0.1769099488
  Sn     2.1399620137     1.6659230660    -1.0034076849
  Sn     6.0616913967    -0.6394726390     1.1189939267
15
MoSn14_4 -3069.173349878 30337.843 13.37 Build 3D scale=1
  Mo    -2.5056990825    -0.0068539406     0.1336855736
  Sn     1.4904773812    -2.8017534487    -0.7066100968
  Sn    -1.0629502120    -2.2139099745     0.7499934886
  Sn    -0.8796193311     1.8020388142     1.2692860784
  Sn    -3.4778311955     2.6738222525    -0.1394866699
  Sn     1.5632475709    -0.5778443340     1.4258102349
  Sn    -3.8682255071    -2.1204535104    -0.9591139925
  Sn     4.5076006654     2.5541396903    -0.8798315603
  Sn    -4.4315183833    -0.1220377864     1.9164735641
  Sn     1.7522246128     2.1780633147    -0.0767569343
  Sn     3.2814267431    -0.1993092202    -1.5792414282
  Sn     4.4236772432     0.5611084904     1.2441544892
  Sn    -4.8893879020     0.5629926216    -1.4511045748
  Sn    -0.1004682265    -0.0136966119    -1.3907105825
  Sn     4.1970456234    -2.2763063570     0.4434524106
15
MoSn14_8 -3069.164519924 30863.772 16.20 Build 3D scale=1
  Mo    -1.0075724844    -0.0573916657     0.1051688631
  Sn    -0.6431786883     1.4828623798     2.4827466777
  Sn    -5.0041897759     1.9938416431    -1.6961206651
  Sn     0.9861552078     0.0702134277    -1.8003101834
  Sn     0.0116369252    -2.7172983156    -0.3951956366
  Sn     2.5483554679     2.5465775570     2.2353145832
  Sn     2.9893165410    -2.0973871558    -0.4161767903
  Sn     3.6651645693    -0.2485760157    -2.7112100974
  Sn    -2.8014367892     0.2183963941    -1.9357356960
  Sn    -2.1207885607    -2.0361765422     1.4804221520
  Sn    -3.1483130537     1.7710639848     0.5136934979
  Sn    -1.4106242642    -4.7713411990     1.0589288000
  Sn     0.6236378313     2.5647497168    -0.0813213300
  Sn     3.6631189081     1.4716883648    -0.2833335938
  Sn     1.6487181657    -0.1912225741     1.4431294187
15
MoSn14_11 -3069.152563127 29255.082 4.86 MoSn14_4 x MoSn14_4
  Mo    -3.1641266719    -0.3969619384     0.6140516866
  Sn     2.9499642940    -1.3359229835    -2.4513820842
  Sn    -1.3360156175     1.4961528669     0.6905753918
  Sn    -0.9729881381    -1.6716111831     1.2322202515
  Sn    -4.8809503162    -2.4569583299     0.6262445504
  Sn     4.4803171367    -2.3161299388    -0.0664740309
  Sn    -4.1376788442     2.1967138663    -0.1420594558
  Sn     0.6512373744     3.4805969601    -0.0889510554
  Sn    -2.8345321938    -0.9892841860    -1.8712550321
  Sn     1.7633564735    -1.1336703161     0.4244082157
  Sn     1.8404098596     1.1975575897    -1.5962204152
  Sn     4.2009308314    -0.4986664103     2.2772767663
  Sn    -5.9787386683     0.0363736361    -0.2097351141
  Sn     4.8263505340     0.7019807888    -0.7076737959
  Sn     2.5924639464     1.6898295782     1.2689741213
