11
Al11_d_56 -2665.495672796 1448.639 48.56 Al11_d_38 x Al11_d_38
  Al     0.0046150247    -2.8332416578     1.0415306895
  Al     0.0096721076    -1.3362422358    -1.2814616898
  Al    -0.0113233070     2.8385851875     1.0387718013
  Al     0.0035918464     1.3317518879    -1.2826235005
  Al    -2.2145958665    -1.5171520491     0.6024780500
  Al    -2.3748047382    -0.0090270639    -1.5215605863
  Al    -2.2182308083     1.5089420534     0.5966997590
  Al     2.2055108550     1.5166145869     0.6065188906
  Al     2.3873755858     0.0022719765    -1.5148405262
  Al    -0.0070307845     0.0012310972     1.1028214982
  Al     2.2152200850    -1.5037337826     0.6116656142

