14
Al14_s_1p -3392.547611024 2320.332 44.96 Population Al13Al_10
  Al     2.3460206575    -1.6413613607     0.0296600088
  Al    -0.1508562853     1.3702263042     2.2671195782
  Al    -1.7348571087     1.6448212280    -0.0283964304
  Al    -4.1063105491     0.0166817960     0.0003236721
  Al    -0.2229767055    -2.6425079554     0.0473643571
  Al     0.8166312039     2.6232327856    -0.0460949158
  Al    -1.7459024187    -0.7734226359     1.4434848301
  Al     0.8026018574    -1.2805439244     2.2989748630
  Al     2.3856957550     0.7663841757    -1.4011317853
  Al    -0.1516467948     1.2902125015    -2.3139330981
  Al     0.8033681638    -1.3621040754    -2.2520554801
  Al     0.3148674008    -0.0040909871     0.0004533569
  Al    -1.7453121047    -0.8239640266    -1.4170103491
  Al     2.3886769284     0.8164361746     1.3712413926

