15
Al15_d_22 -3634.871441917 2605.765 38.75 Al15_d_16 x Al15_d_6
  Al     3.9454433072     0.0003658854    -0.0242134827
  Al     0.7210817839    -0.0093102905     2.5699906211
  Al    -0.7216320626     0.0098281331    -2.5697595960
  Al    -2.0835466472     1.6365061188    -0.7119818086
  Al     0.4292779857    -2.2596653577    -1.3691300401
  Al    -0.4275918119    -2.2709104696     1.3501664568
  Al    -1.9286131331    -0.0118317542     1.8599997629
  Al    -0.0008821391     0.0006219333    -0.0001939738
  Al     2.0830620711     1.6301279559     0.7236183166
  Al    -2.0829303224    -1.6293999900    -0.7250452646
  Al     0.4286045819     2.2703684574    -1.3517214752
  Al     2.0837693226    -1.6339293199     0.7130249882
  Al    -3.9440685830     0.0006960272     0.0238415803
  Al    -0.4299872644     2.2590411341     1.3702989845
  Al     1.9280129113     0.0074915366    -1.8588950696

