17
Al17_d_20 -4119.533958729 3173.968 47.32 Al17_d_6 x Al17_d_16p
  Al    -2.5590139444     1.5246479533    -0.3642582154
  Al    -1.2704130385    -0.5166561469    -1.3664922656
  Al     3.9010177417    -0.6926196304    -0.4816144859
  Al     2.5467483474     1.5362378530    -0.3590297076
  Al    -3.8940697833    -0.7155782321    -0.4874555445
  Al     2.2504612027    -2.6845495930    -0.1413114941
  Al     2.0722551980    -0.3433549031     1.6328192226
  Al     1.2816288639    -0.5109641279    -1.3846849998
  Al    -0.0045220021     1.2648654350     0.8502357319
  Al     0.0105540699    -2.9823272735    -1.5400471003
  Al    -0.0013223795    -0.1556641309     3.2447122465
  Al     1.2343935292     3.6734450875    -0.1163894446
  Al     0.0024518924    -1.7846012104     0.9662012352
  Al    -0.0040488880     1.7752519571    -1.8218572512
  Al    -2.2368152486    -2.7029058003    -0.1487370327
  Al    -2.0731200214    -0.3528217850     1.6301795256
  Al    -1.2561855396     3.6675945475    -0.1122704202

