18
Al18_s_17 -4361.866121761 3546.166 31.21 Al18_s_14 x Al18_s_3p
  Al    -2.3843589550     3.0653250087     0.1358451920
  Al     0.8264620234     0.8500266990     2.5972196025
  Al     0.8098161457    -1.0748673714    -2.4297690780
  Al     2.4796117424    -1.1900888556     1.8320332541
  Al     3.3529640083     1.4480815031    -1.4997661459
  Al    -3.7176998135     0.7945283021     0.0948140932
  Al     0.8293173221    -0.0807047189     0.0139265305
  Al     3.2269272127    -1.0680047300    -0.7686076226
  Al    -1.0976066850    -2.1030110694    -0.7986975707
  Al    -1.5314935908     0.7168427919     1.5665034158
  Al    -3.5154009029    -1.2731564247    -1.5767754494
  Al     2.9153112681     1.4025669203     1.0816113995
  Al     0.2489685248     2.5000429952     0.3570893942
  Al    -2.8812223278    -1.6094943586     1.1547125218
  Al    -1.4577024187     0.5942820371    -1.3399012458
  Al     0.8276954534     1.6161012294    -2.1895267928
  Al    -0.2630569842    -1.6574031458     1.8690243820
  Al     1.3314679769    -2.9310668125    -0.0997358804

