19
Al19_d_47 -4604.205569092 3911.016 25.76 Al19_d_1 x Al19_d_3
  Al    -0.6242660444     0.1644498206     2.7137095119
  Al    -1.8465868469    -1.9065588535    -1.2695467021
  Al    -0.6463555933    -2.1778471381     1.2723257136
  Al     3.4907081813     1.1236908146     0.8094654768
  Al     1.8791982640    -3.1703097966     0.4506280854
  Al     0.8900616737     1.9784876788     1.4296444186
  Al     0.0499722888     2.8836113254    -1.1077297989
  Al    -2.4660241454     2.5563632140    -0.8970348150
  Al    -0.8065244186     0.3625740916     0.0989701700
  Al    -0.2699316830    -4.0000764549    -0.8457515251
  Al     0.7687052851    -1.5432960346    -1.4142191579
  Al    -0.7870580622     0.4939430350    -2.4958385516
  Al    -2.5759828852     1.7486134032     1.6439860024
  Al     3.4537501478    -1.2188180950    -0.5490126783
  Al    -3.3886457361     0.1603007613    -1.0469940397
  Al     2.5955225196     3.2919099138    -0.4034533614
  Al     1.6931223328     0.8302989512    -1.2696772336
  Al     1.5434166316    -0.6570989289     1.4080319200
  Al    -2.9530819096    -0.9202377080     1.4724965651

