20
Al20_s_24n -4846.571386876 4329.147 8.24 Al20_s_1 x Al20_s_2
  Al     2.5377827439     2.4116571246    -0.4377148099
  Al    -2.3453080592     2.4037638900    -1.0385200620
  Al    -2.3020051076    -2.0995492003    -1.5679685808
  Al    -2.4811966216    -0.3055459517     2.5680817780
  Al     1.3521732214    -0.0001098168     0.0385950789
  Al    -2.4791572173     2.0840103217     1.5398006960
  Al     2.5370994193     1.1899065655     2.1951785778
  Al     2.5711451184     0.3318769753    -2.3831462963
  Al    -1.1553107711     0.0020505087     0.0679362119
  Al    -2.4731829930    -2.3900444439     1.0115737041
  Al    -2.2329273963     0.3097702213    -2.6099001714
  Al     0.2626027182    -0.3536203089     2.4980176105
  Al     0.2340566413     1.6752791479    -1.7970947948
  Al     2.5299425401    -1.7458676858     1.7784899618
  Al     3.8407816497    -0.0012273078     0.0753378269
  Al    -3.6274760770     0.0002063006    -0.1163803975
  Al     0.2122497399    -2.4463524618     0.3799128713
  Al     2.5457111644    -2.1938266655    -1.0647264571
  Al     0.2259489294     2.2619575198     1.0431844259
  Al     0.2470703571    -1.1343347327    -2.1806571734

