22
Al22_s_4 -5331.242479486 5090.675 47.63 Population Al21Sc_1
  Al    -1.0557330828     2.7924049287     0.9644298035
  Al     1.4009725816    -2.8664282615     0.7461728172
  Al    -0.6295601302     2.5850985708    -1.7485536091
  Al     0.4955759817    -2.9294237947    -1.9482950929
  Al     3.2158273424    -0.8924279690     0.6465384606
  Al     1.2422636289    -0.4634158962     2.3069308382
  Al    -0.2547665617    -0.9691077675    -0.0438499587
  Al    -3.0388100669     3.0825806351    -0.7420842402
  Al    -2.0238769881    -2.0183320450    -1.9210657982
  Al     1.6738880500     1.7967241448    -2.7173727619
  Al    -2.7472061644    -1.4746686264     0.7316512485
  Al    -1.2200199702     0.3033990452     2.3356406386
  Al     1.0769489212     1.4152844925    -0.0131023482
  Al    -1.1624044440    -3.8171270586     0.0971825515
  Al     3.5638906747     1.3280960668    -0.9634568018
  Al    -2.3523131418     0.5222162085    -1.1731707778
  Al     3.1891806434     1.5198439731     1.6891373672
  Al    -3.3608188027     1.2591913025     1.1504852154
  Al    -0.7125571806    -2.4024372382     2.4368638189
  Al     0.8454244558     2.2180760004     2.6090009272
  Al     2.1307640290    -0.8749342646    -1.7742854050
  Al    -0.2766697754    -0.1146124468    -2.6687968929

