24
Al24_s_26 -5815.913520895 5887.367 56.69 Al24_s_12 x Al24_s_5
  Al     4.5983128012     0.1569426566     0.8938109377
  Al    -0.4533364562    -0.5668392855     3.2691415561
  Al    -2.5544525232     2.0559976623     0.1475727807
  Al     1.7529331748     0.3171725874     1.5633188051
  Al     0.8817396473    -2.4029963808     1.8371994570
  Al    -0.9098069475    -3.3251500070    -0.0519048435
  Al    -1.0565899429     2.7997600337    -2.3219967868
  Al     0.4292834576     0.6265997016    -2.9744336580
  Al    -0.7493408191    -1.8109554069    -2.3501072249
  Al    -0.6220465527     1.7194080403     2.0275965588
  Al    -2.1611543378     0.4238342912    -1.8954133489
  Al     1.7721457470    -1.6275156610    -3.5104534021
  Al    -4.5614478836     0.3233266623    -0.2719105590
  Al     1.4629772504     3.3220807015     1.6080756124
  Al     1.4251701755    -2.6213841858    -1.0261223565
  Al    -0.7366800600     3.9019806454     0.1770050321
  Al    -2.8989628837    -1.7532271296    -0.5550931232
  Al    -1.9323803265    -2.6208188475     2.3202480339
  Al    -2.7409447333    -0.1351947783     1.7557786499
  Al     3.2223320330     2.1581770414     0.0886708339
  Al     3.2040025598    -1.9581300418     0.8427183323
  Al    -0.4428439141    -0.6122154944     0.2354446026
  Al     0.6252018396     1.7663204134    -0.5602962725
  Al     2.4458886944    -0.1371732184    -1.2488496170

