5
Al5_d_2 -1211.473462221 298.160 18.62 Population Al4Al_26
  Al     2.5096955485    -0.8726953284    -0.0001019927
  Al    -1.2414988297     1.4133237784    -0.0001154527
  Al    -2.5103538459    -0.8718355149     0.0000158469
  Al     1.2426740211     1.4128119323     0.0001226857
  Al    -0.0005168939    -1.0816048675     0.0000789128

