6
Al6_s_7 -1453.817567792 458.589 95.99 Population Al5Al_45
  Al     1.7030292372    -0.1258301857    -0.9618524600
  Al     0.9588972653     1.4114133626     0.9637271624
  Al    -0.9608860296    -1.4051979067    -0.9664139414
  Al     0.7402528713    -1.5383293041     0.9623992423
  Al    -0.7424127713     1.5327840899    -0.9654787502
  Al    -1.6988805729     0.1251599440     0.9676187470

