7
Al7_d_7 -1696.175152094 630.729 51.97 Population Al6Al_14
  Al     0.5695599238     0.9784827609     1.3711855743
  Al     0.5720365867    -1.6767299204     0.1549019603
  Al    -1.4448881823    -0.9112341491    -1.2767169012
  Al     0.5679164272     0.7037638317    -1.5306402886
  Al    -1.4468167341     1.5596783242    -0.1482997076
  Al    -1.4364339409    -0.6546348058     1.4310736275
  Al     2.6186259195     0.0006739584    -0.0015042647

