8
Al8_s_16 -1938.491627657 795.455 51.37 Population Al7Al_14
  Al    -1.1577979790     1.5950562817    -0.5466526668
  Al     1.1557381991     1.5968141836     0.5415286672
  Al     1.1556985014    -1.5969193323     0.5416425143
  Al     3.0487195258    -0.0000736359    -0.0963170923
  Al    -1.1574981240    -1.5949871252    -0.5472273341
  Al    -0.5484777935    -0.0000209124     1.7202792381
  Al     0.5495406485     0.0003412928    -1.7229587150
  Al    -3.0459229783    -0.0002107523     0.1097053886

