9
Al9_d_47 -2180.822445640 999.796 55.19 Al9_d_41 x Al9_d_2
  Al     2.1436891445    -0.5032504397     1.2753886817
  Al     1.6675419715     1.8264574621     0.0005355122
  Al    -2.7640156812     0.6859214722    -0.0005060191
  Al     2.1480598318    -0.5042554629    -1.2713939625
  Al     0.4420585035    -2.1927215122    -0.0016315473
  Al    -0.3357548694     0.0690548933     1.3440023616
  Al    -0.8292878521     2.4339134995     0.0011590705
  Al    -0.3307640729     0.0750898895    -1.3464953756
  Al    -2.1415269758    -1.8902098017    -0.0010587216

