12
Al11Sc_1 -3427.942304770 1848.360 28.25 Population Al11Sc_27
  Al     2.5091503306    -1.2517713318     1.3542669747
  Al    -1.9681461711     1.7565822470     1.6192917768
  Al    -0.6876921965    -1.0356979148    -1.5031946615
  Al     0.7579744870     1.2537515915    -1.8434379774
  Al     2.0024052773    -0.8824850844    -1.3169936972
  Al     0.0605328923    -0.0095423083     0.9013325859
  Al     0.7779420905    -2.7689191867     0.1763799765
  Al    -2.8217400565    -0.3204848501     0.2273650993
  Al     0.1395017704     2.8008051949     0.4500706033
  Al    -1.6852754450     1.5572126220    -1.2063809968
  Al    -1.6872031860    -2.5136600295     0.6203359076
  Sc     2.6025502070     1.4142090503     0.5209644088

