13
Al12Sc_1 -3670.467372941 2209.367 104.10 Population Al12Sc_22
  Al    -2.5633544145    -0.0080238725     0.0028262382
  Al     1.1246514985    -1.5288489255    -1.8528033967
  Al    -1.2393479131     2.2212518023    -0.8829682650
  Al     0.0873469034     0.0009098009    -0.0000590075
  Al     1.1439625425    -2.2211925691     0.8826388242
  Al    -1.2203217322    -1.2880409480     2.0214799038
  Al     1.1156652013     1.2861418353    -2.0309487935
  Al    -1.2413333513    -0.1596982053    -2.3806067042
  Al     1.1238226908     0.1615544832     2.3967696601
  Al    -1.2407834788     1.5207777572     1.8395541323
  Al    -1.2192229233    -2.3257377402    -0.5843953453
  Al     1.1168477934     2.3294252872     0.5928494970
  Sc     3.0120671834     0.0114812947    -0.0043367433

