14
Al13Sc_10 -3912.948171876 2486.237 43.33 Al13Sc_5 x Al13Sc_6
  Al     1.4093005037    -0.2465138739     2.3984295736
  Al     0.7046724142     2.2001617661    -1.4057945040
  Al    -1.2935275480     0.2396327501    -2.0783617852
  Al    -3.6949265599     0.5404004591     0.0002861706
  Al    -1.2953712940     0.2304215394     2.0769488060
  Al     1.4133123526    -0.2178483661    -2.3965751676
  Al    -1.5745203593     2.0775868825     0.0063077555
  Al     0.7072535862     2.1796108805     1.4319297968
  Al     2.3408067744    -1.7976543830    -0.0061346485
  Al     0.0068586456    -2.3026885232    -1.4308486288
  Al     0.0053748388    -2.3199876345     1.4082071730
  Al     0.3516490115    -0.0301528805    -0.0007144675
  Al    -2.1040206651    -1.4865051912    -0.0046807429
  Sc     3.0231382995     0.9335365748     0.0010006690

