15
Al14Sc_10 -4155.443040360 2795.889 91.60 Al14Sc_3 x Al14Sc_7
  Al     0.6599054026     1.2247321558    -2.3351236715
  Al     0.4236412695    -1.2202820271     2.4054179699
  Al     0.5509018861     0.0101952321     0.0235252653
  Al    -1.5044162032    -0.2526322627    -1.7853494958
  Al    -3.6620031236     1.1332866254    -0.3850683705
  Al    -1.7923493911    -0.0008522800     1.4817943027
  Al     0.8481456023    -1.5421608146    -2.0942467812
  Al     2.0200453180    -2.2098620660     0.3600545505
  Al    -3.2287782830    -1.4206096250    -0.2043400598
  Al    -1.1305741037     2.1130427575    -0.3018922827
  Al    -0.7106949418    -2.3356151608     0.0898144613
  Al     2.6018082852     0.3664446078     1.6977047014
  Al     1.5566751204     2.4602269044    -0.0421217570
  Al     0.1763287302     1.6123320400     2.1670099326
  Sc     3.1913644321     0.0617539131    -1.0771787650

