17
Al16Sc_15n -4640.401983777 3420.677 48.38 Al16Sc_7 x Al16Sc_10
  Al    -2.8581378371     0.4332443891    -1.7953286769
  Al    -0.6481154586     0.1387622698     0.0085918055
  Al    -3.6936096153    -0.6616783062     0.3225993954
  Al    -0.5137228968    -0.0739213903    -2.7908617540
  Al     3.6545839373    -0.2665779335    -0.7967809576
  Al    -0.2792951237     0.0933716042     2.6483634540
  Al    -1.4010469880    -2.0788734101    -1.1067425876
  Al     1.2346609105    -1.4121320011    -1.4119541138
  Al     3.0677201597    -2.4076308384     0.5384808435
  Al    -1.5031272896     2.5489131577    -0.9223637124
  Al     0.5131409012    -2.3865778999     1.0635844987
  Al    -1.9172256177    -1.8108864729     1.7334478473
  Al     1.1182872436     1.5233205855    -1.4687378025
  Al     1.8995990560     0.0833816536     1.2004055390
  Al    -2.3733666064     1.4166021668     1.5219074032
  Al     3.1810243281     2.1660247029     0.0589531989
  Sc     0.5186308967     2.6946577228     1.1964356195

