18
Al17Sc_8 -4882.891959116 3751.202 48.88 Al17Sc_6 x Al17Sc_1
  Al     0.1053116503    -0.3276923270     3.0725434182
  Al    -1.0346558398     2.5961996072    -0.0802318941
  Al     0.0820820385    -1.2505086625    -2.1121292729
  Al    -1.8448043885     0.1799289939     1.3410825816
  Al     0.5041838549     0.2241544964     0.0468129002
  Al     2.4924986511    -0.7310222589     1.5948142647
  Al     2.5890898728    -0.4940260969    -1.7851310577
  Al    -1.7785548368     0.5432655589    -1.6257479694
  Al     0.9530483897     1.8838377056     2.1187151500
  Al    -3.5450989139     1.9386374330     0.0266467498
  Al    -1.9835023042    -2.1041106464    -0.4982351810
  Al    -0.0531240286    -3.8165505044    -0.7469463925
  Al     2.9881006330     1.4158042229    -0.0362043266
  Al     0.0248975420    -2.2017569752     1.3761420935
  Al    -4.0052929584    -0.5362020178    -0.1951510726
  Al     1.3996845722     3.5070170239     0.1462638505
  Al     2.2541295675    -2.6011190170    -0.2901265635
  Sc     0.8520064982     1.7741434645    -2.3531172783

