20
Al19Sc_10n -5367.901111245 4538.803 19.43 Al19Sc_7 x Al19Sc_7
  Al     0.1878069406     0.2733205595    -2.4878887829
  Al     0.2376767000    -1.7678380605     1.7569309020
  Al     0.2822037263    -2.2676639190    -1.0681118209
  Al    -1.1876100052     0.0527214031     0.0072215357
  Al     1.4231517886     0.0421933165     0.0065447763
  Al    -2.3270091946    -0.9972638886     2.4016271723
  Al    -2.4575960428     0.9599108174    -2.3947943337
  Al     2.4763523086     1.7123903645    -1.7524411105
  Al    -3.8075592082    -0.1616389673    -0.0272800187
  Al    -2.2073302551    -1.6075551426    -2.0613120546
  Al     0.1477054480     1.1497672163     2.2235510437
  Al     2.5736734708    -2.3257022470     0.4065052307
  Al     2.5404404776    -1.0850291631    -2.1227585761
  Al    -2.5338195607     2.5430542358    -0.3439889223
  Al     0.1661713288     2.4831223124    -0.4878654301
  Al     2.4865852459    -0.3215297591     2.4053877043
  Al    -2.5343334561     1.5586567370     2.0469118161
  Al     2.4479216153     2.2191082220     1.0924115906
  Al    -2.1334321195    -2.6072910574     0.3601169631
  Sc     4.2190007916     0.1472670200     0.0392323150

