22
Al21Sc_11 -5852.860039174 5281.166 50.43 Al21Sc_1 x Al21Sc_3
  Al     2.9876781191    -3.1292616505     0.1938064192
  Al    -0.8832885938     3.1152121210     0.8829988228
  Al     1.3321617459    -1.2126108497     1.2122970717
  Al    -1.2366209279     2.5997766482    -1.9015437687
  Al    -2.6262444002     1.0946437174    -0.1257046171
  Al    -2.5338315162     1.3337404216     2.4974076560
  Al     0.0918912130     0.7521792379    -0.3873282613
  Al     2.7423786175     0.8880204354     2.4115948161
  Al    -1.2802887745    -1.2527268245     1.2637457652
  Al    -0.5155509383    -1.6216190256    -1.6058021662
  Al     2.7594230159     1.0520605424    -0.5894557563
  Al     0.0525700039     0.8521959716     2.4357757519
  Al     0.5067456781    -3.5371346590     0.0708890679
  Al     1.2565269633     3.0517646163    -1.4651540299
  Al    -3.3123805413    -1.4682430734    -0.8920140894
  Al     2.1741500208    -1.3748144522    -1.6822896600
  Al    -3.9179655209    -0.6620967811     1.5913344331
  Al    -1.9866826741    -3.5302265271    -0.1423093105
  Al     1.6530370869     2.9161668152     1.2197876872
  Al     3.9728449210    -0.8644725765     0.8428791448
  Al    -2.1010355889     0.2887078476    -2.6249392139
  Sc     0.8644820908     0.7087380450    -3.2059757626

