23
Al22Sc_1p -6095.360484056 5747.246 20.90 Population Al22sc_d_32
  Al    -2.2922748388     3.0203394646    -0.3788112171
  Al     2.7890598023     2.9153209762     0.1055157174
  Al     0.6935043237     1.9395295522     1.7154414522
  Al     2.4949815285    -1.8214744499    -1.7438807665
  Al     3.2986857854     1.4773236234     2.2010388365
  Al     2.5771300469    -2.5302273565     0.8093784894
  Al     0.1021541745    -2.8716185272     2.2962954573
  Al    -1.8881214262     1.5851530475    -2.6105114705
  Al    -3.7481746002     0.4334062158    -0.8608591451
  Al     0.0943457678    -2.9388638911    -2.4039813051
  Al    -0.8901113850    -0.3452758642     2.5333893155
  Al     0.3008909942    -1.4342730139    -0.1090024851
  Al    -1.1133284726     0.6712984582    -0.0453552710
  Al    -0.6767537487    -3.9193701132    -0.0536730053
  Al     1.7849883235    -0.6119197416     2.4666543605
  Al    -2.3374067864    -1.8659208579     0.6953020049
  Al     0.3645259282     2.5729257564    -1.2008071897
  Al    -1.9321373499    -1.2356938882    -1.9842527173
  Al     2.2517295370     0.3143704356    -0.1570504072
  Al     2.7887903848     1.8845238869    -2.3689874169
  Al    -3.4273719277     0.3696063351     1.7531939897
  Al    -1.8040687194     2.3656292880     2.1699844944
  Sc     0.5689626582     0.0252106639    -2.8290217209

