24
Al23Sc_1 -6337.849229710 6155.099 47.90 Population Al23Sc_6p
  Al    -3.3003508464     1.2328872170     0.4840846201
  Al    -3.3313603105    -0.7453382247     2.2159752406
  Al    -1.4582242252     1.0533028526     2.6194516960
  Al     3.5425972925    -2.0399819854    -1.0079326318
  Al     3.0636873117     1.7660190630     2.0653207364
  Al    -2.7980554549     2.2465666262    -1.9212476177
  Al     1.1841302665     1.0331760672     0.2657828151
  Al     0.6370977281     2.5547719886     2.5398480463
  Al    -0.9451183731    -2.0170801519     2.4417645048
  Al     1.6442279753    -0.5430407446    -2.0890636486
  Al    -0.9576980166     2.7017637714     0.3823059970
  Al    -0.5702859241     0.8588206637    -2.2139201520
  Al    -3.1134686943    -2.1972989933    -0.0486223442
  Al     1.3125307682    -3.3327179732    -1.6872128683
  Al    -2.9426968332    -0.4790115662    -2.0846814915
  Al     1.1791514817    -1.8754157261     0.5540754157
  Al    -0.8253829400    -3.4908384445     0.0404394765
  Al     1.0234386345    -0.2244230091     2.8178973167
  Al     1.7754188093     2.2403730059    -2.1063211853
  Al     3.3009750253    -0.8417768973     1.5783207393
  Al    -1.0626180438    -0.3953637027     0.1920824337
  Al    -0.5467297779     3.5448643782    -2.0908494468
  Al    -0.7355551117    -1.8512366234    -2.3012033600
  Sc     3.9242892588     0.8009784086    -0.6462942920

