25
Al24Sc_3 -6580.345209920 6660.356 61.22 Population Al24sc_d_13
  Al     0.8590860845    -3.3794047786     1.1968763659
  Al    -1.3804215196    -1.9980144160     1.0948700358
  Al     1.8386885748    -3.0368944412    -1.2930675985
  Al    -2.2991723374    -1.2814774507    -1.4182891846
  Al     0.8397469114    -1.1844451566     2.7119110250
  Al     2.8148131822     1.7939313028    -0.7052581608
  Al    -1.5439368686    -0.0175244602     2.9057390095
  Al     0.7372390316     1.4401730151     3.4649394886
  Al     2.9910236037    -0.7432805249    -1.7303962044
  Al    -1.0387943407     0.9900648716    -2.5389263140
  Al    -2.4306473154     0.6779507177     0.4382473539
  Al     0.8377170493     3.0770674357    -1.8614840895
  Al     0.2269656038    -1.3422209550    -2.5832807418
  Al    -1.2831929388     2.5189855322     2.1009039193
  Al     2.7317187198     0.9156765481     1.8980852279
  Al    -3.5407149995     1.3583789542    -1.9908315034
  Al     2.7978449013    -1.5965407400     0.8491263384
  Al     1.0159504721     2.8020437056     0.9060840375
  Al     1.5434583517     0.9351244768    -3.1748190731
  Al     4.6770166774     0.1786608896     0.2443070453
  Al    -3.8373883234    -1.1718183941     1.6929503642
  Al    -0.7618418452    -3.4078002954    -1.1327646536
  Al    -4.8343531851    -0.3960470472    -0.5817624584
  Al    -1.3714457399     2.8319809701    -0.5209466156
  Sc     0.4106402503     0.0354302404     0.0277863863

