5
Al4Sc_39 -1730.516008310 390.014 110.33 Al4Sc_4 x Al4Sc_37
  Al     1.9496293037    -0.0070171654     0.3940625265
  Al    -0.0099652383     1.7624514277     0.4872611400
  Al    -1.9557359682    -0.0152262238     0.3675950531
  Al    -0.0003155546    -1.7744222066     0.4270585363
  Sc     0.0163874575     0.0342141680    -1.6759772559
