7
Al6Sc_8 -2215.494731631 724.218 63.44 Population Al6Sc_7
  Al     0.5941357636     2.1225185188     0.0657250586
  Al     0.0603906537    -0.0014348145    -1.6873703181
  Al     0.6031210492    -2.1198443805     0.0409718026
  Al     0.0173485891    -0.0000736141     1.6991180400
  Al    -1.8162658869     1.2555065256    -0.0626940731
  Al    -1.8133589800    -1.2600694858    -0.0190224301
  Sc     2.3546288113     0.0033972505    -0.0367280800
