8
Al7Sc_16 -2457.966443488 909.869 90.79 Al7Sc_8n x Al7Sc_4
  Al    -1.8090910363     0.3116778479    -1.4742548189
  Al    -2.5370951489     0.4559747798     1.1428030863
  Al     0.8058394565    -0.1652979104    -1.6777913199
  Al    -0.1436886720     1.8218048153    -0.1195408783
  Al    -0.8360979327    -1.6440414935    -0.0627172554
  Al     1.7966152756    -1.7122339127     0.2998964019
  Al     0.1419729852     0.0173206752     1.7159935709
  Sc     2.5815450727     0.9147951984     0.1756112135
