9
Al8Sc_31 -2700.470495576 1118.678 92.47 Build 2D scale=1
  Al    -1.5045829848    -2.1250610715    -0.0512501237
  Al    -0.6639354717     0.0090748076     1.4027504311
  Al     0.9783317004     1.9725301192     0.0609999912
  Al     1.0583691937    -1.9548685741     0.0893242761
  Al    -2.8200511559    -0.0446196388    -0.6432857732
  Al    -0.0940023793    -0.0186682253    -1.4049270948
  Al    -1.5951786046     2.1008448155    -0.0709327593
  Al     1.9197494660     0.0386138047     1.6448677177
  Sc     2.7213002363     0.0221539629    -1.0275466652
