10
Al9Sc_39 -2942.950569227 1341.092 -11.78 Al9Sc_23 x Al9Sc_6
  Al    -1.0535818220     2.5174283968     0.3813260611
  Al    -2.8592892969     0.7487647977     0.6227093026
  Al    -1.0060234911     0.1886470759    -1.3316584654
  Al     0.9977614693     2.0873197616    -1.0343427893
  Al     0.0124965317     0.0097791071     1.1646078522
  Al    -0.1229199592    -2.3511151664    -0.7321792664
  Al    -2.1377520361    -1.6925836143     0.6925063294
  Al     2.0141412157    -1.9156701880     0.7525671927
  Al     1.5376444826    -0.4194637500    -1.4548592525
  Sc     2.6175229060     0.8268935795     0.9393230357
