7
MgPt6_4 -916.182844010 16381.366 23.43 Population MgPt6_1
  Mg    -0.7880631619    -0.2207541309    -1.3571940119
  Pt     0.5205843516     1.3374314541     0.2792034994
  Pt     1.4169263056    -1.0640668153    -0.2012761585
  Pt    -1.9748735387     1.7842750367    -0.3105440438
  Pt    -1.4220641090    -0.2002760301     1.1801553328
  Pt     2.9825719136     0.7586947792     0.3608187564
  Pt    -0.7350817612    -2.3953042938     0.0488366256
7
MgPt6_6 -916.180806302 16564.697 21.11 Population MgPt6_2n
  Mg    -0.0489466209    -0.0685614762     1.2576719173
  Pt    -1.4236996068     1.1881654364    -0.6510643526
  Pt    -0.2727264148    -1.0807344118    -1.1367771602
  Pt     1.9413338795     0.4227053621    -0.6348873564
  Pt    -2.4061545196    -0.9128417120     0.3665484953
  Pt     1.6123606607    -1.8634309120     0.4037814575
  Pt     0.5978326219     2.3146977135     0.3947269992
7
MgPt6_16 -916.171522345 16478.502 29.37 Population MgPt6_18
  Mg    -0.9131894959    -1.4838248411    -0.0215808166
  Pt     1.1966115444     2.4164173749    -0.0044077995
  Pt     1.1538549554     0.1706626866     1.2691571965
  Pt     1.1385094871     0.1624019623    -1.2683994437
  Pt    -3.0915594745    -0.2554437371     0.0057954487
  Pt     1.5318386187    -2.0793384722     0.0076802849
  Pt    -1.0160656352     1.0691250265     0.0117551296
7
MgPt6_15 -916.168333849 17058.217 26.07 Population MgPt6_20
  Mg    -0.7508445853    -0.0077431505    -1.5371627772
  Pt     2.0639207966    -0.2046415482     1.3851693655
  Pt    -1.0919441689     1.4127462649     0.5955569244
  Pt     1.5030930557    -1.1147837700    -0.9473674846
  Pt    -0.3242095518    -1.0030074913     0.9369070983
  Pt    -2.6960958025    -0.5324129335     0.0243119262
  Pt     1.2960802563     1.4498426285    -0.4574150526
7
MgPt6_8 -916.168184057 16500.311 21.96 Population MgPt6_15
  Mg    -0.2667206198    -0.0160898558     1.3104348332
  Pt     1.7746931471    -1.0538334193    -1.0242057685
  Pt     1.1334700648     1.4218624835    -0.6338937890
  Pt    -1.4026830127     1.3013030023    -0.7096079249
  Pt    -2.7285303157    -0.4082592904     0.6582974036
  Pt     2.2673169692     0.0004164855     1.2154812196
  Pt    -0.7775462329    -1.2453994057    -0.8165059740
7
MgPt6_17 -916.167223925 16621.108 26.10 Population MgPt6_17
  Mg    -0.3233224428    -0.1004726521     1.3986087950
  Pt     2.2456070372    -0.3519851022     1.1731928156
  Pt    -0.4296203508     1.0481674653    -0.8600123280
  Pt    -2.5310259546     0.8963549280     0.6220186799
  Pt    -1.8480497565    -1.2338302767    -0.6585631131
  Pt     0.7302046181    -1.2489890273    -0.7258215001
  Pt     2.1562068494     0.9907546651    -0.9494233491
7
MgPt6_18 -916.166742770 16231.612 30.31 Population MgPt6_16
  Mg    -0.4748249416    -1.3977753779     0.8131465521
  Pt     1.8103052291    -2.2404497656     0.2718971885
  Pt     1.5667526003     2.5282677960    -0.0082161761
  Pt    -0.9695397579    -0.1426398091    -1.5238374740
  Pt    -2.6747762453    -0.2424441416     0.3659853729
  Pt    -0.6483423179     1.4091364434     0.5057439468
  Pt     1.3904254333     0.0859048547    -0.4247194101
7
MgPt6_14n -916.163785741 15819.109 16.79 Population MgPt6_6
  Mg    -1.7092974744    -0.7093300593     0.0110400409
  Pt    -0.6159873026    -2.9633021764    -0.0026043486
  Pt    -0.1484228530     1.4097200859    -0.0098542438
  Pt     2.0523366719     0.8648861798    -1.2609672401
  Pt     2.0299253491     0.8558129545     1.2757188492
  Pt     0.9638171795    -1.1085817265    -0.0102217262
  Pt    -2.5723715705     1.6507947420    -0.0031113313
7
MgPt6_23 -916.162262363 16175.562 15.22 MgPt6_17 x MgPt6_4
  Mg    -0.0738112204    -0.9584162325    -1.0582226786
  Pt     0.6826276724    -0.6811627542     1.4680376197
  Pt     1.4433398412     1.1991159963    -0.1494361835
  Pt     2.3905247186    -1.1620554228    -0.3775707841
  Pt    -2.4214194538    -1.5045775508    -0.4360394074
  Pt    -1.4693514097     0.4655208714     0.7045253203
  Pt    -0.5519101483     2.6415750925    -0.1512938864
7
MgPt6_12 -916.158723624 15458.624 13.47 Population MgPt6_14
  Mg    -0.4207604323    -1.4003937443     0.0026314209
  Pt    -2.2897891011    -0.1231326505    -1.2572669235
  Pt     1.9240499714     0.1317217356    -0.0008713578
  Pt     1.9422114057    -2.2894779604     0.0004976521
  Pt     1.6485877662     2.5415690488    -0.0000598169
  Pt    -0.5125998637     1.2604655170    -0.0009306899
  Pt    -2.2916997462    -0.1207519462     1.2559997151
7
MgPt6_19 -916.144090571 15222.941 5.26 Population MgPt6_19
  Mg    -0.7215097172    -1.5694394211    -0.0209699954
  Pt    -0.2561072641     2.8028282870    -0.0402490978
  Pt     3.2673482484     0.3136608621     0.0584137660
  Pt    -3.1667018366    -1.2169232831     0.0230886934
  Pt     1.8951776077    -1.7471450888    -0.0532340691
  Pt     0.7727948636     0.5905988549     0.0115156911
  Pt    -1.7910019019     0.8264197889     0.0214350118
7
MgPt6_22 -916.137986046 15573.688 12.60 MgPt6_14p x MgPt6_21
  Mg    -1.1335165150    -1.1717881992    -0.4447974776
  Pt    -2.1216913794     1.4303414316    -0.0503136956
  Pt     1.4524387004    -1.4439699820    -0.3811847721
  Pt     2.4166937455     0.1324785948     1.4416485699
  Pt     2.5525321950     0.8266928400    -0.9756035646
  Pt     0.2647639101     0.8857324523     0.2119133143
  Pt    -3.4312206566    -0.6594871375     0.1983376256
