3
MgPt2_3 -438.729253424 1676.294 163.56 Build 2D scale=1
  Mg    -0.0000218960    -1.3411959999     0.0000000000
  Pt    -1.2769980520     0.6706055181     0.0000000000
  Pt     1.2770199480     0.6705904818     0.0000000000
3
MgPt2_4 -438.674033637 1077.135 43.29 Build 2D scale=1
  Mg    -0.0000016381    -0.0002817733    -0.0000000000
  Pt     2.4141623315     0.0001408866     0.0000000000
  Pt    -2.4141606934     0.0001408867    -0.0000000000
