11
MgPt10_3 -1393.691502070 43637.620 33.89 Population MgPt10_4
  Mg    -0.0419772330    -0.0002066949    -1.9728165968
  Pt    -1.6351597525    -1.3289965023    -0.1826958799
  Pt    -0.7204935119    -0.0010590112     1.9272846799
  Pt    -0.0632527067    -2.5418197160    -1.8125367759
  Pt     1.0882693119    -1.3119461486     0.1197387706
  Pt     1.8473860958     0.0010836394     2.2603933362
  Pt    -3.2019283633     0.0009393654     1.3784861582
  Pt     1.0890686941     1.3119922861     0.1188620364
  Pt     3.3349015083    -0.0008243085     0.1585689091
  Pt    -1.6337063005     1.3292558048    -0.1820827683
  Pt    -0.0631077421     2.5415812857    -1.8132018697
11
MgPt10_2 -1393.687380550 43729.307 29.60 Population MgPt10_1
  Mg    -0.4548549990    -0.0012795127     1.8719640498
  Pt    -0.2043306210     2.5395430372    -1.8280816002
  Pt    -0.2828990586     0.0017134847    -1.8143858891
  Pt    -0.2046940606    -2.5359869145    -1.8323154755
  Pt    -2.9789775409    -0.0018031012     1.6451880007
  Pt     2.1315827943    -0.0020757071     2.0637332073
  Pt    -1.6598242539    -1.4516628747    -0.0050063488
  Pt    -1.6595271542     1.4520941979    -0.0027034054
  Pt     1.0499450451     1.3958639660     0.0763015264
  Pt     1.0494629087    -1.3961452184     0.0740769000
  Pt     3.2141169402    -0.0002613572    -0.2487709652
11
MgPt10_4 -1393.682791691 43668.185 30.21 Population MgPt10_5
  Mg    -0.1261366197    -0.1246095401     1.7661448396
  Pt    -3.0583227844    -0.2251421662     0.1500607860
  Pt     1.7505879597    -1.3847696183     0.1576259496
  Pt     0.5218489285     0.3357972306    -1.7904113469
  Pt     0.1083944809     2.4524494190     1.9374443198
  Pt     3.0350072813     0.0904575179    -1.5267869371
  Pt    -1.1684223858     1.5452701951    -0.0568771238
  Pt     1.7400397444     1.2594779249     0.3587910037
  Pt    -2.0216067105     0.1926899821    -2.1728772257
  Pt    -0.8704217755    -1.4485797636    -0.4035048373
  Pt     0.0890318812    -2.6930411814     1.5803905723
11
MgPt10_5 -1393.672015483 43302.777 27.89 Population MgPt10_2
  Mg    -0.6868536747    -0.7368916511    -1.6288809958
  Pt     0.1949927501     0.4798305797     1.5357193599
  Pt     1.6015686388     0.7226498695    -0.8247166605
  Pt    -2.1749482450    -0.3178851643     0.6352470708
  Pt     2.7231506357    -1.3790132487     0.1687080008
  Pt     0.1902845281     1.3983478818    -2.8084475861
  Pt     2.7165314787     0.7143197192     1.5642182750
  Pt    -0.9576800981     1.7242913876    -0.5384439151
  Pt     0.2600652455    -1.8890910210     0.4851282239
  Pt    -1.8710932902     1.9280428152     1.8581176395
  Pt    -1.9960179689    -2.6446011681    -0.4466494124
11
MgPt10_6n -1393.659497564 44477.376 25.43 Population MgPt10_6
  Mg    -0.0043256116    -1.4697449070     1.0544194979
  Pt    -2.0973830802    -1.2380572111    -0.5068986411
  Pt     2.1001846975    -1.1212390451    -0.5319048795
  Pt     0.0203357048     0.9714299731     1.4621057983
  Pt    -0.0049230136     2.6243533460    -1.6960110628
  Pt     1.8230051440     1.4927126926    -0.2636755318
  Pt    -2.3367639307    -0.1722653615     1.8259455353
  Pt     2.3666626500    -0.1532308675     1.8170197967
  Pt    -1.8236580412     1.5109837322    -0.2058765809
  Pt    -0.1400242130     0.0776548425    -1.5813436920
  Pt     0.0968896940    -2.5225971941    -1.3737802400
11
MgPt10_6p -1393.659484060 44473.991 22.05 Population MgPt10_6
  Mg    -0.0131383105    -1.4751226229     1.0544195663
  Pt    -2.1024191428    -1.2249110246    -0.5016964843
  Pt     2.0861146786    -1.1310340203    -0.5308834839
  Pt     0.0296921695     0.9641844791     1.4683487954
  Pt     0.0060518764     2.6246053425    -1.7014391135
  Pt     1.8261014034     1.4848754154    -0.2647023170
  Pt    -2.3395089982    -0.1569335920     1.8293731471
  Pt     2.3760595817    -0.1603720018     1.8136729067
  Pt    -1.8091191125     1.5190017718    -0.2008690708
  Pt    -0.1398102183     0.0791264627    -1.5887316634
  Pt     0.0799760728    -2.5234202099    -1.3774922825
11
MgPt10_8 -1393.642375965 42590.819 19.98 Population MgPt10_8
  Mg    -0.8289292668    -0.0538534486     1.6429683305
  Pt     0.7718559155     1.4389371070     0.0430189748
  Pt    -1.6934616852    -1.1193526562    -0.6318825142
  Pt     0.2549761945    -2.3610423499     0.5857145209
  Pt     1.8219533665    -0.4281814604     1.6615965706
  Pt    -0.2703667758     3.3174583222    -1.1575268616
  Pt     0.0611812111    -2.4575048921    -1.9637258162
  Pt    -1.7518884161     1.5081019073    -0.2856081827
  Pt    -3.3217019628    -0.0525891309     1.0152850732
  Pt     3.2744783950     0.9630812012     0.0873589117
  Pt     1.6819030240    -0.7550545997    -0.9971990070
11
MgPt10_10 -1393.634897256 42546.598 15.94 Population MgPt10_16
  Mg    -0.6299528690    -0.2723352883     1.1767974353
  Pt    -0.3366124498    -2.9168118228     0.6669121272
  Pt     1.5400083858    -1.5741511892    -0.2617719325
  Pt     3.8545096408    -0.7194885280    -0.0921207761
  Pt     0.7007224571     2.3923069431    -1.1915429879
  Pt    -1.9736983843    -1.7599963204    -0.8164620771
  Pt    -3.2849690108    -0.0438963623     0.5011723169
  Pt    -1.7272701041     1.7210714762    -0.4009883014
  Pt     0.0530768227     2.3394551762     1.3648105256
  Pt     2.0010343694     0.8679876604     0.4618746440
  Pt    -0.1968488579    -0.0341417450    -1.4086809738
11
MgPt10_13 -1393.624407371 41870.380 16.06 Population MgPt10_12
  Mg    -0.6181434643    -1.1807776181     1.0134720522
  Pt    -1.5298499370    -1.8026264431    -1.6816176338
  Pt     1.9328461466    -0.3032001515     0.8991212314
  Pt    -1.8659726234     0.6506602127    -0.6233237947
  Pt     3.0830137151    -0.7430728558    -1.4103841721
  Pt     0.9964280075    -1.2040024903     2.9641692315
  Pt    -3.0877374930    -1.3928958123     0.2662592146
  Pt     0.5317799084    -0.3408346759    -1.3503250272
  Pt    -1.8871057075     2.9972461790     0.2348532212
  Pt     0.1934178049     1.7085738004     0.6298796280
  Pt     2.2513236425     1.6109298548    -0.9421039510
11
MgPt10_12 -1393.621661976 41370.580 13.02 Population MgPt10_11
  Mg    -0.0037409850    -0.8867727249    -1.1661243068
  Pt     0.0563757252    -2.9625351639     0.5569859015
  Pt    -1.6886152645    -1.1795124046     0.8133678343
  Pt    -3.6515875321     0.4601517147     0.7425723861
  Pt     2.5559219913    -0.1023906315    -1.5568323015
  Pt     1.9493653564    -1.3268550549     0.6558428956
  Pt    -2.6626011136    -0.3875872975    -1.4732705021
  Pt     1.1576626966     1.1057636202     0.3148000280
  Pt     3.6373417151     0.5950207468     0.6678344694
  Pt    -1.3882723583     1.3683412743    -0.0142666410
  Pt     0.0381497689     3.3163759212     0.4590902365
11
MgPt10_14 -1393.612705162 41545.592 12.91 Population MgPt10_13
  Mg    -0.2079531268    -0.8429645768    -1.3171564105
  Pt    -1.3643290174     1.0016862247     0.1914432560
  Pt     2.3167284021    -0.2820050717    -0.4238216933
  Pt    -0.7133198477     3.3490072795    -0.2541175543
  Pt     1.0605416436     1.8689714793     0.5636218824
  Pt     1.8302418239    -0.5248459491    -2.8112716475
  Pt    -3.7087292781     0.2324248177    -0.2430188006
  Pt    -2.1171749346    -1.4642204625     0.5491235984
  Pt    -0.1479533408    -2.9968838951     0.3608859142
  Pt     0.4317127519    -0.7187097692     1.3642858367
  Pt     2.6202349239     0.3775399231     2.0200256185
11
MgPt10_15 -1393.605117579 40551.094 10.10 Population MgPt10_15
  Mg    -0.2695791982    -0.1028116910     1.3502991047
  Pt    -2.5246128474     0.2872124719    -0.0318169275
  Pt     0.9975926955    -1.9021644862    -0.2701435454
  Pt     3.4683201341    -1.1238956476    -0.6441260178
  Pt     1.6291907811     0.6112186699    -0.4092745312
  Pt     2.3443142106    -0.9059746653     1.6517827253
  Pt    -1.9253174106     1.8961449418     1.7858501181
  Pt    -3.3085064846    -1.4732995589    -1.5621693295
  Pt    -1.4945497912    -2.1388977465     0.0393471816
  Pt    -0.4296929329     2.1193411302    -0.2530338457
  Pt     1.5128408438     2.7331265819    -1.6567149325
