10
MgPt9_2 -1274.336046739 36139.823 46.45 Population MgPt9_4
  Mg    -0.0007515336    -0.0016424928    -1.9623819291
  Pt     0.0003075388     0.0009403645     1.9438507198
  Pt     0.0069642498     2.5484722062    -1.7909080844
  Pt    -1.3752557067     1.3233109697    -0.0231244837
  Pt     2.5421222900    -0.0041847360     1.8410746922
  Pt     1.3755105802    -1.3233366758    -0.0208440860
  Pt    -1.3828073601    -1.3159968707    -0.0204424732
  Pt    -2.5411235939     0.0091641043     1.8419040615
  Pt    -0.0069898266    -2.5527089402    -1.7859984508
  Pt     1.3820233622     1.3159820708    -0.0231299662
10
MgPt9_7 -1274.292663313 35838.030 24.02 Population MgPt9_19
  Mg    -0.7929155346    -0.1249975815     1.2865713373
  Pt     2.5621286443     0.2517396151    -1.4171204135
  Pt    -0.0033086879     0.6537097019    -1.7251025973
  Pt    -2.3077070400     1.1057733199    -0.6561687871
  Pt     1.0744337434     1.5845097848     0.4044786651
  Pt    -0.9137973633    -2.6936543287     1.0744510304
  Pt    -1.1830117952     2.4159656861     1.2527823702
  Pt     2.6341061642    -0.3549501617     1.0791597952
  Pt     0.7731693012    -1.4172766569    -0.3591995460
  Pt    -1.8430974320    -1.4208193790    -0.9398518543
10
MgPt9_5 -1274.288789251 35874.126 25.18 Population MgPt9_18
  Mg    -1.5005752285    -0.1192134014     1.2108602738
  Pt     0.2460948095     1.3111721691    -0.3780631315
  Pt     1.1454275087    -1.7258050853    -0.8275374717
  Pt    -2.1651843875     0.8612298167    -1.2402982688
  Pt     1.1033986608    -0.4585314065     1.3678569139
  Pt     2.6076962198     1.4783544139     0.6101565960
  Pt    -1.7838345706     2.3616674175     0.8087995979
  Pt     2.2601644392     0.3765896897    -1.6961404837
  Pt    -1.3754769189    -1.5601344966    -1.0606050024
  Pt    -0.5377105325    -2.5253291171     1.2049709765
10
MgPt9_6 -1274.285026833 35992.006 22.10 Population MgPt9_6
  Mg    -2.3058440029    -0.3295945672     0.8835653028
  Pt    -2.9004502341     0.0170098146    -1.5672844607
  Pt     0.1505328647     0.4191747842     1.6028669512
  Pt    -0.5201361366    -2.1151584746     1.5798305722
  Pt     1.7407295723     1.0865214557    -0.6140771927
  Pt     3.3428433533    -0.6301911356    -1.3799126938
  Pt    -0.9511609558     1.3878094016    -0.5927046137
  Pt    -0.7206295292    -1.2305295513    -0.9477929165
  Pt     0.5925618351     2.8340828140     0.8624136333
  Pt     1.5715532331    -1.4391245415     0.1730954178
10
MgPt9_18 -1274.271697855 36081.560 13.02 MgPt9_2 x MgPt9_17
  Mg    -0.4491201440    -1.5409261836     1.6166040808
  Pt    -1.7720591395    -0.8251838145    -0.4967603957
  Pt    -2.9532432271     1.4626872728    -0.3042005130
  Pt     1.3675792720     0.3123072482     2.0825105434
  Pt    -0.5595736476     1.3341462078    -1.2367761394
  Pt     1.6942795818     0.7234532331    -2.2355820292
  Pt     1.3576858872    -0.9272300038    -0.2823792767
  Pt     2.5289540330     1.3728125312     0.0573922925
  Pt    -0.2150409169    -2.9056955568    -0.4874048190
  Pt    -0.9994616990     0.9936290657     1.2865962562
10
MgPt9_12 -1274.270098136 35695.264 25.39 Population MgPt9_12
  Mg    -0.9578050466    -1.4110846593    -0.0106999080
  Pt     2.2592022728     1.2513496733     0.0127718968
  Pt     0.2647002863     0.7317745336     1.5750840288
  Pt     0.2801740463     0.7414840439    -1.5713503271
  Pt    -3.3926995400    -0.6363950882    -0.0077987927
  Pt     0.5889390385    -1.7095931843     2.1799473623
  Pt     0.6132344782    -1.6957411042    -2.1854458394
  Pt    -1.7100428126     1.1350772427    -0.0063508436
  Pt     1.7971881460    -1.3099125614     0.0054230037
  Pt     0.2571091311     2.9030411039     0.0084194192
10
MgPt9_8 -1274.269993579 35719.259 20.22 Population MgPt9_8
  Mg    -0.8877924589    -1.6013711693    -0.3693944617
  Pt    -2.7884304931    -0.1167951295    -1.2890885737
  Pt     1.3900867371    -0.7836896709    -1.3903022827
  Pt     3.4134209106    -1.1220092638     0.1458099757
  Pt    -1.1096830935     0.6402953886     1.2507403535
  Pt    -2.9285090265    -1.1524024539     1.0643387098
  Pt     0.1926607991     2.7514779980     0.5127415751
  Pt     2.1706263943     1.1862729394     0.1054521701
  Pt    -0.5193201952     1.0124144124    -1.2604719092
  Pt     1.0669404261    -0.8141930511     1.2301744431
10
MgPt9_15 -1274.265638325 36305.337 21.59 Population MgPt9_14
  Mg    -1.5729938853    -0.8968977617    -1.0905728100
  Pt    -0.1283209458     1.4186116506    -0.5508674190
  Pt     1.5601504669     1.3456359225     1.8486067936
  Pt    -0.3127608527    -0.4284591710     1.2609119416
  Pt     2.4972636091     1.4815880382    -0.5470527989
  Pt    -2.8623539300    -0.2925368294     1.0814204677
  Pt     0.1909137720    -2.5818582443    -0.1995239898
  Pt     1.0793440784    -0.5755774718    -1.6558253278
  Pt    -2.6550878686     1.4115103260    -0.7793218093
  Pt     2.2038455562    -0.8820164592     0.6322249518
10
MgPt9_9 -1274.258356879 35939.098 23.43 Population MgPt9_9
  Mg    -1.5587956624    -1.7178803648    -0.5885639783
  Pt    -0.8183628392    -0.0028492208     1.2554087771
  Pt     1.8471914053     0.9033602826    -1.2760673782
  Pt    -0.7015312910     0.6520826575    -1.2346989790
  Pt     3.0969180392     1.8294157120     0.6646894692
  Pt     0.9324288864    -1.5431052510    -1.3903566201
  Pt    -3.1600134540     0.2022000611    -0.0487190367
  Pt    -1.7477351129     2.2655150734     0.4875208411
  Pt     0.3859247090    -2.3983808448     1.0165574939
  Pt     1.7239753197    -0.1903581052     1.1142294109
10
MgPt9_10 -1274.258048746 34961.321 15.71 Population MgPt9_11
  Mg    -0.8265276035    -0.0040646206    -1.2372513282
  Pt    -2.2752700473     1.4493469951     0.5887889795
  Pt     1.6099729513     1.3347828921    -1.3243932155
  Pt     1.5124565568    -1.1947949206    -1.5751899993
  Pt     2.5816651473    -1.4249704799     0.7586299304
  Pt    -3.3767042323    -0.2227944457    -1.0454906920
  Pt     0.2663769931     1.2949851706     0.9062303652
  Pt     2.8331035140     1.0823485114     0.9252797326
  Pt    -2.4004742226    -1.0682756359     1.1332317455
  Pt     0.0754009431    -1.2465634665     0.8701644817
10
MgPt9_11 -1274.246383184 33903.336 17.12 Population MgPt9_10
  Mg    -0.7228230507    -1.2767555106     1.1236172051
  Pt    -2.0820949651     0.9426353405     0.4100375091
  Pt    -2.1586809523     0.0711925641     2.7053214990
  Pt    -1.5647118813     1.9407579836    -1.8683877595
  Pt     2.7378125739     1.9727400399     0.1212698436
  Pt    -0.3427176548    -2.9445668514    -0.8350676692
  Pt     0.4582042811     1.3244453561    -0.4295792939
  Pt     3.4000219241    -0.3288409169     0.7180010520
  Pt     1.3686766172    -1.1163617533    -0.4446619491
  Pt    -1.0936868922    -0.5852462520    -1.5005504370
10
MgPt9_13 -1274.244048625 35815.915 12.80 Population MgPt9_16
  Mg    -1.8587975391    -1.5931941093     0.5738634179
  Pt     2.6176283813    -0.4948030707    -1.5356433183
  Pt    -1.9003534771     0.9328505690    -0.3841097208
  Pt    -3.8942838796    -0.5088825006    -0.3929390822
  Pt    -0.2341652138     2.6714844756     0.5202343568
  Pt     1.8927838214     1.7504207622    -0.5371103978
  Pt     0.5951565180    -2.2422067368     0.6714539290
  Pt     0.0938162963    -0.4754478788    -1.2172315482
  Pt     2.5999722698    -0.2684850553     1.0246451327
  Pt     0.0882428228     0.2282635445     1.2768372308
10
MgPt9_14 -1274.242635848 33567.011 8.59 Population MgPt9_13
  Mg    -0.9744292672    -0.8123994544     0.1616759816
  Pt     0.9577908361     0.4055869887     1.6127183242
  Pt     1.4407304481     0.8056754858    -1.0345106750
  Pt    -3.4827961615    -1.1293460543    -0.1607663295
  Pt     1.9712936652    -1.1580276439    -2.4881673117
  Pt    -0.6785608947     1.8602167265     0.1381880934
  Pt    -2.8067849873     1.0644087596    -0.9057185333
  Pt     1.6244344722     2.7156050386     0.7027266189
  Pt     0.4410310264    -2.0369900013     2.1102359446
  Pt     1.5072908628    -1.7147298453    -0.1363821132
10
MgPt9_16 -1274.197738235 33341.851 8.57 Population MgPt9_15
  Mg    -2.1004861245    -1.0587608561     0.1152578643
  Pt     1.7508305467     0.5674225532     1.5575350987
  Pt    -4.0914550834     0.3049189762     0.8150674194
  Pt    -2.6415628299     1.3208578478    -0.8709211850
  Pt     1.8537282511     2.6025793301     0.0054233961
  Pt    -0.7531394585    -3.1255103817    -0.3635015763
  Pt     2.2308479149     0.4886397264    -1.3777239221
  Pt     3.3052814042    -1.0787640590     0.3504491933
  Pt     0.7479139581    -1.2461025173    -0.0896361747
  Pt    -0.3019585788     1.2247193803    -0.1419501138
