6
MgPt5_14 -796.821851281 11723.972 26.98 Build 3D scale=1
  Mg    -0.0385137807    -0.0007717175     1.3366506801
  Pt     0.6036220417    -1.3098480337    -0.8875599753
  Pt    -1.7705908754    -1.2991048791    -0.0066955349
  Pt    -1.7652157687     1.3024358971    -0.0069354897
  Pt     2.3604687995    -0.0046853877     0.4486834522
  Pt     0.6102295836     1.3119741210    -0.8841431324
6
MgPt5_16 -796.804986859 11428.428 13.48 MgPt5_5 x MgPt5_8
  Mg    -0.4147481612    -1.2930828735     0.0179015479
  Pt     1.1076588581     0.8794238952    -1.2876186915
  Pt    -1.0918159980     1.2130220260    -0.0054768740
  Pt     2.0734892428    -1.1431379526     0.0100396762
  Pt    -2.7974950333    -0.5744411269     0.0051189188
  Pt     1.1229110915     0.9182160318     1.2600354226
6
MgPt5_3 -796.801116851 10739.885 28.29 Population MgPt5_1
  Mg    -0.0025530485    -1.5301509416     0.0006825588
  Pt     0.0047754455     2.7992843998     0.0001022351
  Pt     2.5047885221    -1.3942662667     0.0000457751
  Pt     1.3692384114     0.7544603011    -0.0005670799
  Pt    -1.3667134176     0.7577881429     0.0000003108
  Pt    -2.5095359128    -1.3871156354    -0.0002637999
6
MgPt5_7 -796.795588600 10885.800 14.63 Population MgPt5_4
  Mg    -0.2618135988    -0.9697102182     0.0314231478
  Pt     1.9329209805    -0.4934388704    -1.2443700517
  Pt    -1.6813677574     1.2686872812    -0.0054222012
  Pt    -2.7738080465    -0.9237733887     0.0057623256
  Pt     0.8400518051     1.5293862469    -0.0507931184
  Pt     1.9440166171    -0.4111510508     1.2633998979
6
MgPt5_12 -796.787777368 10430.126 27.20 Population MgPt5_15
  Mg    -0.0003479195    -1.1111957580    -0.0003299937
  Pt    -2.5031567117    -1.5015518179     0.0002016412
  Pt     1.7697042404     0.8030067389     0.0006340866
  Pt     2.5024273527    -1.5028045763    -0.0002492177
  Pt     0.0011409988     2.5090689022    -0.0002528359
  Pt    -1.7697679607     0.8034765112    -0.0000036805
6
MgPt5_13 -796.772829615 12517.092 52.34 Population MgPt5_5
  Mg    -1.6476683858    -1.7494490583    -0.0004789239
  Pt     0.6411672769     1.8243829824    -0.0071992935
  Pt     0.2183036606    -0.3813856329    -1.2747217406
  Pt    -1.9019047716     0.7131112423    -0.0013511251
  Pt     2.4757996583    -0.0382588618     0.0022507726
  Pt     0.2143025616    -0.3684006717     1.2815003106
