8
MgPt7_3 -1035.549890430 21847.736 24.26 Population MgPt7_8
  Mg    -0.0811187709    -0.9507096420    -1.1679676398
  Pt     1.2098111639     0.9911471832     0.2539109211
  Pt     0.0859709429     3.1618113507     0.3361673900
  Pt    -1.1252471250    -1.0598060849     1.3171352942
  Pt    -2.5937926058    -1.0754427313    -0.7559264316
  Pt     1.4116383323    -1.3924656090     1.1877710024
  Pt     2.4547304472    -0.8006526510    -1.0744804497
  Pt    -1.3619923847     1.1261181843    -0.0966100866
8
MgPt7_18 -1035.548535010 22326.018 23.87 MgPt7_4 x MgPt7_15
  Mg    -0.7125164507    -0.0094397855    -1.3698634528
  Pt    -1.5761561307    -2.2220543512    -0.2134363220
  Pt     2.7267735141     0.0858375046     1.1261736936
  Pt    -1.7391463530     2.1458460361    -0.2482498635
  Pt     1.9702429449     0.2617607350    -1.3285171893
  Pt     0.4521157035     1.1808132855     0.6842987337
  Pt     0.7887874075    -1.4120179230     0.3323022427
  Pt    -1.9101006356    -0.0307455016     1.0172921576
8
MgPt7_17 -1035.548329871 22695.438 19.49 MgPt7_13 x MgPt7_8
  Mg    -0.8718060439    -0.3934176676    -1.5356389817
  Pt     1.5753320509    -1.0535574297    -1.3766880987
  Pt    -1.0031864521    -1.2227580999     0.8901416594
  Pt     1.5238109046     1.2406671229     1.4750322850
  Pt     1.1349101778     1.4393129553    -1.0490037711
  Pt    -0.8688008692     1.2247213495     0.6031926239
  Pt    -3.0034561518     0.0467078008    -0.1815751752
  Pt     1.5131963837    -1.2816760313     1.1745394582
8
MgPt7_1 -1035.548084701 22446.428 27.05 Population MgPt7_15
  Mg    -0.7566135434    -0.0034839986     1.3882799700
  Pt     1.8859764791     0.0113793615     1.3706086326
  Pt     0.6133591311     1.3690187288    -0.5171231873
  Pt    -1.6705057066    -2.1957478733     0.2071134124
  Pt     2.7188505159     0.0094417188    -1.0708153250
  Pt    -1.7156290484    -0.0131544138    -1.0634869911
  Pt    -1.7073661108     2.1791209161     0.2028573992
  Pt     0.6319282831    -1.3565744396    -0.5174339109
8
MgPt7_4 -1035.548012354 22497.165 17.68 Population MgPt7_13
  Mg    -0.6521995914    -0.5090359351     1.3333529977
  Pt    -2.4410463451     1.1633867834     0.4900975947
  Pt     2.1526832413     0.8315376790    -1.3977803827
  Pt    -2.3496901145    -1.0735188953    -0.5978701902
  Pt     1.8949839582     0.5772686067     1.1595010151
  Pt     1.3524020235    -1.8505444651     0.6155290613
  Pt    -0.0364482702     1.5824201712    -0.2743202101
  Pt     0.0793150982    -0.7215139448    -1.3285098859
8
MgPt7_21 -1035.543580151 22284.149 26.47 MgPt7_18 x MgPt7_16
  Mg    -0.1793887293    -0.9060039292     1.5070827845
  Pt    -0.9349257258    -2.7604098898    -0.1152199057
  Pt     2.0495735574     1.1740266113    -1.2747719718
  Pt    -1.6680216667    -0.2905921395    -0.4392070800
  Pt     0.8564582153    -1.0994791977    -0.8613105192
  Pt     0.0368586031     1.5671159907     0.2393817985
  Pt     2.1608614758     0.1700070377     1.0562436140
  Pt    -2.3214157298     2.1453355165    -0.1121987203
8
MgPt7_5 -1035.543272227 22285.233 20.43 Population MgPt7_2
  Mg    -0.0748980553    -0.0388420110    -1.1848720542
  Pt    -1.4133597304    -1.3712039759     0.7445542014
  Pt     0.3404669357     0.3393720041     1.6312735393
  Pt     1.8360570946     1.7407362115    -0.4700896992
  Pt    -2.5791414396     0.4695234078    -0.5118745046
  Pt     2.1205137364    -0.7127649710     0.1684726232
  Pt    -0.6711625897     2.1023361017     0.1477496366
  Pt     0.4415240483    -2.5291567672    -0.5252137425
8
MgPt7_20 -1035.541844570 21743.446 15.18 MgPt7_9 x MgPt7_19
  Mg    -0.4332401920    -1.4436756596     0.0097469123
  Pt     1.8253062500    -2.5669270381     0.0009639887
  Pt     1.7201555377     2.4023941577    -0.0050202044
  Pt    -0.1284820894     1.0453570403    -1.2725473102
  Pt    -2.3671220074    -0.2019952004    -1.2422274971
  Pt    -0.1390820651     1.0614110590     1.2587152217
  Pt    -2.3739579952    -0.1927015496     1.2393839285
  Pt     1.8964225613    -0.1038628093     0.0109849605
8
MgPt7_19 -1035.540431682 22737.285 33.09 MgPt7_15 x MgPt7_17
  Mg    -0.7809933068    -0.2505894308    -1.4531138333
  Pt    -0.0051232783    -2.4156981835    -0.0595446114
  Pt    -2.6769464647     1.1501255291    -0.3791056603
  Pt     1.7217743614    -0.5345130899    -1.0784069737
  Pt     1.1619571472    -0.4543519084     1.3631127820
  Pt    -0.2094873699     1.5446109894     0.2915020687
  Pt     2.3416215075     1.6175692377     0.3047982436
  Pt    -1.5528025965    -0.6571531436     1.0107579843
8
MgPt7_8 -1035.533793739 22262.381 27.91 Population MgPt7_6
  Mg    -0.1598890356    -1.6521050568    -0.7256213265
  Pt    -2.5666193769    -1.7936973560    -0.0390063383
  Pt     0.3734247848     2.2213566941     1.1511884485
  Pt     2.3782733947    -1.5919246481    -0.3622898092
  Pt     1.2914714602     0.6998083850    -0.8688174501
  Pt    -0.8114601895     2.2066608728    -1.0795755386
  Pt     0.9235642820    -0.3952465987     1.4066555994
  Pt    -1.4287653197     0.3051477076     0.5174664147
8
MgPt7_11 -1035.527187202 21710.470 19.10 Population MgPt7_10
  Mg    -0.5543628784    -0.0138607936    -1.2893349680
  Pt    -2.8797298391     0.8756744197    -0.3698259031
  Pt    -0.5081947088    -2.5082015397    -0.4274564563
  Pt    -1.5135868148    -0.7473032554     1.0953990213
  Pt    -0.7366961804     1.7373615005     0.6864688399
  Pt     1.1982925767    -0.8816890688     0.5242134912
  Pt     3.4830609745     0.0643609174     0.2408934355
  Pt     1.5112168702     1.4736578199    -0.4603574605
8
MgPt7_7 -1035.526258223 21696.864 20.26 Population MgPt7_1
  Mg    -1.0206708912    -0.2827730623    -1.3761096615
  Pt    -1.8813946404    -0.4153585958     1.0957238668
  Pt     0.7091056918    -0.7040446436     0.5159769179
  Pt     3.0534419410    -0.7481264846    -0.4700578153
  Pt    -1.0445272065    -2.5006699584    -0.0919640419
  Pt     0.1575436913     1.7460486249    -0.1916819617
  Pt    -2.3758264193     1.6550177730    -0.3357527610
  Pt     2.4023278332     1.2499063469     0.8538654569
8
MgPt7_12 -1035.524476861 21595.018 19.05 Population MgPt7_14
  Mg    -0.2059818367    -0.3320510328    -1.5237230247
  Pt    -1.7125342225    -0.8089557792     0.6303548466
  Pt    -0.2902956574    -2.6413202217    -0.3842683862
  Pt    -3.1600300187     1.1890409740     0.3765958226
  Pt    -0.6955682999     1.5788265718     0.1427449678
  Pt     1.0683685983    -0.7169913982     0.6855719717
  Pt     3.3213128942     0.3396345767     0.8227781020
  Pt     1.6747285428     1.3918163094    -0.7500542998
8
MgPt7_6 -1035.523139841 21262.958 16.47 Population MgPt7_11
  Mg    -1.0708075427    -1.4100606470     0.0126727439
  Pt     0.8875412924    -2.9660136084     0.0035331352
  Pt     1.8798829183     1.5533154201    -1.2927666542
  Pt    -2.4615979318     0.3938074516    -1.2503262399
  Pt    -0.3181706232     1.1181217266    -0.0043467065
  Pt     1.8754422146     1.5500080439     1.2929829914
  Pt    -2.4659489220     0.4110010155     1.2434283857
  Pt     1.6736585945    -0.6501794021    -0.0051776557
8
MgPt7_9 -1035.515453772 20952.183 12.99 Population MgPt7_3
  Mg    -0.0000584229    -1.3951862719    -0.0137514832
  Pt    -2.2547821436    -0.9717667811     1.2578843658
  Pt     2.2743705649    -0.9782367900    -1.2470091982
  Pt    -2.2743541753    -0.9782024933    -1.2470332204
  Pt     2.2547405909    -0.9717998811     1.2579111750
  Pt     1.2598916790     1.0448842228    -0.0064465508
  Pt     0.0000126121     3.2054246939     0.0048580424
  Pt    -1.2598207053     1.0448833008    -0.0064131306
8
MgPt7_15 -1035.498324633 21807.207 23.11 Population MgPt7_5
  Mg    -1.7233758806    -1.9519226586     0.1403088751
  Pt     0.4743777444     1.2305448793     1.4351840515
  Pt    -3.6835540054    -0.4907201579    -0.0926702273
  Pt     2.8957591717    -1.6039495973    -0.1903627652
  Pt     0.4897229800     2.1136696095    -0.9746335278
  Pt     2.5691102259     0.8727801985    -0.0400027988
  Pt     0.5065986973    -0.8854360362    -0.1367651729
  Pt    -1.5286389331     0.7150337627    -0.1410584346
