4
MgPt3_17 -558.090113677 3944.772 65.02 MgPt3_14 x MgPt3_7
  Mg    -0.0000422040    -1.2524808846    -0.0007273031
  Pt     2.1405905528    -0.0004388780     0.0004194036
  Pt    -2.1405329619    -0.0004441003     0.0004194179
  Pt    -0.0000153869     1.2533638629    -0.0001115185
4
MgPt3_15 -558.079101978 4381.218 45.78 Build 3D scale=1
  Mg    -0.0081272398    -0.0135913599    -1.6364395974
  Pt     1.2128565309    -0.8153286309     0.5458087432
  Pt    -1.3128423744    -0.6328435983     0.5502954173
  Pt     0.1081130833     1.4617635891     0.5403354368
4
MgPt3_12 -558.077696231 4300.645 71.35 Population MgPt3_5
  Mg    -0.1578301983    -0.0015687342     1.4680270557
  Pt     0.8291806702     1.2566286552    -0.4651198215
  Pt    -1.5152783718    -0.0072777873    -0.5373399421
  Pt     0.8439278999    -1.2477821337    -0.4655672921
4
MgPt3_9 -558.077696194 4300.777 72.13 Population MgPt3_2np
  Mg    -0.1580257072    -0.0023165497     1.4683949454
  Pt     0.8387709692    -1.2503492373    -0.4660207402
  Pt     0.8342172492     1.2542428972    -0.4648327018
  Pt    -1.5149625111    -0.0015771102    -0.5375415033
4
MgPt3_13 -558.054805842 3249.640 31.78 Population MgPt3_4
  Mg    -0.5127302989    -0.0028630646    -0.0000481187
  Pt     1.7392161057     1.2059823480     0.0000147377
  Pt     1.7435942115    -1.2031061191     0.0000147903
  Pt    -2.9700800183    -0.0000131643     0.0000185907
