12
MgPt11_1 -1513.131336223 52535.127 31.53 Population MgPt11_8
  Mg    -1.0331936134    -0.4861531365    -1.7273552559
  Pt     1.5576446942    -0.5591502728    -1.0157768880
  Pt     2.3311205194    -2.0848342618     0.8963508839
  Pt    -2.6031320554     0.2832270983     0.3533644628
  Pt    -0.4480278495     1.7933489483    -0.3942405274
  Pt     2.1282863624     0.2314036938     1.8655612164
  Pt     0.6436290066     1.2030383315    -2.6408468916
  Pt     2.0772586746     1.8220218989    -0.1596313974
  Pt    -2.5576060899    -2.1130593616    -0.5951604172
  Pt    -1.6221352540     2.1694270493     1.8272279251
  Pt    -0.3630073463    -0.0282946187     1.4261870376
  Pt    -0.1108370489    -2.2309753686     0.1643198517
12
MgPt11_2p -1513.128057096 52669.988 37.38 Population MgPt11_16
  Mg    -0.8040088389    -0.0568852237    -1.9697380318
  Pt     0.5846171962     1.9041433081    -0.6872344751
  Pt     1.8065274135     0.1918212087    -2.1930120343
  Pt    -0.3188666427    -0.1582846034     2.0276445399
  Pt    -3.2671679226    -0.0233610147    -1.4297847740
  Pt     0.7745145995    -1.4230470501    -0.3802071613
  Pt    -0.1595951277    -2.6602536776     1.6195414432
  Pt     3.2197826002    -0.8007657499    -0.2763295954
  Pt    -1.8051028560    -1.4923017036     0.0793990955
  Pt    -1.7740201340     1.2584112521     0.1836811565
  Pt    -0.1460192093     2.4365262002     1.8229256329
  Pt     1.8893389219     0.8239970539     1.2031142039
12
MgPt11_2n -1513.128004886 52722.016 44.72 Population MgPt11_16
  Mg    -0.8858502212    -0.2124092630    -1.9609330546
  Pt     0.6450934362     1.7329179570    -0.8131238659
  Pt     1.7212414198    -0.0803892822    -2.2726629696
  Pt    -0.2418874365     0.0730441902     2.0339274104
  Pt    -3.3390294868    -0.0660048594    -1.3548256975
  Pt     0.7070581182    -1.4595824953    -0.2681908196
  Pt    -0.2113588097    -2.4608420504     1.8717847427
  Pt     3.1693811079    -0.9058683936    -0.2936642184
  Pt    -1.8552768261    -1.4057524106     0.2500405286
  Pt    -1.7490221097     1.2949834916     0.1131937232
  Pt     0.0222208621     2.6122602833     1.5641194963
  Pt     2.0174299459     0.8776428326     1.1303347245
12
MgPt11_8 -1513.120837644 52372.084 28.16 Population MgPt11_13
  Mg    -0.1485581384    -0.3034899063     1.9937205890
  Pt    -0.0741381974     2.2116246194     2.2692775719
  Pt     1.5942371178     0.3570657681    -2.3243764725
  Pt     0.1986541913    -1.4212622299    -1.1006953576
  Pt     1.0268120479     1.3138690427     0.1260001727
  Pt    -1.7075516987     1.3346344907     0.5081004800
  Pt    -0.9757957016     0.7092481476    -1.9750328732
  Pt     0.0011738485    -2.7872299869     1.1986379246
  Pt     3.4313911965     0.6454070705    -0.4993228588
  Pt     1.9793061406    -1.0917833313     0.6749771014
  Pt    -1.9502898594    -1.2813427197     0.2696585033
  Pt    -3.3752409471     0.3132590352    -1.1409447807
12
MgPt11_3 -1513.119100824 51870.246 20.63 Population MgPt11_15
  Mg    -0.2727788528    -1.3123592503    -1.2437725358
  Pt     1.9055468545     0.1811349420    -0.7781717438
  Pt    -0.8585900658    -0.7012534698     1.3404122574
  Pt     1.0970276796     0.0489515680     2.7577962837
  Pt     1.3849172242     2.6532550395    -1.4400590388
  Pt     1.5615434585    -1.6539405354     0.8889374634
  Pt     2.0335298842    -2.2675423432    -1.5781386267
  Pt    -0.4839772646     1.2718228885    -0.3011900512
  Pt     1.5342138063     1.8934203016     1.0263989368
  Pt    -2.6999124624     1.0952259766     1.0525935230
  Pt    -2.5949424798    -1.6951359764    -0.2444182390
  Pt    -2.6065777820     0.4864208589    -1.4803882290
12
MgPt11_4 -1513.116947266 51880.719 20.13 Population MgPt11_10
  Mg    -0.5734826786    -0.1593288361    -1.3629332681
  Pt    -1.6950122245    -2.4264643437     0.2683559701
  Pt     1.7083731244     0.8516016108     1.1522904713
  Pt    -0.0365574257     2.2401055219    -0.1815931691
  Pt     0.8906038640    -2.1815223238    -0.0178141223
  Pt    -2.2427551033     0.9540224531     0.4529006071
  Pt    -3.0439157211    -0.8928041844    -1.1715068753
  Pt     0.8652004854     1.6713534658    -2.5045497199
  Pt     3.1047166207    -1.3273772956     0.8557974923
  Pt     2.0947112207    -0.1210815994    -1.1941468458
  Pt    -0.7271116357     1.9002989861     2.3195125006
  Pt    -0.3447705263    -0.5088034547     1.3836869592
12
MgPt11_6 -1513.109475799 52469.449 27.97 Population MgPt11_18p
  Mg    -1.3609769533    -0.3840691648    -1.7828509845
  Pt    -1.3368691060     2.1101934655     2.0114377312
  Pt    -0.8286242398     1.9894490685    -0.5126780225
  Pt     1.8615808211    -1.7940176335     1.3049015486
  Pt    -2.8600860417    -2.0222528912    -0.5576212492
  Pt     3.5572669993    -0.1426965503     0.3615587501
  Pt    -2.1984100381     0.0982918408     0.7270996968
  Pt     0.2953664184     0.1497708484     1.9269102975
  Pt    -0.4389842454    -1.9403931702     0.1871621557
  Pt     1.5641935335     1.4594509461     0.1807143857
  Pt     0.3709554878     1.1606385137    -2.6873133907
  Pt     1.3745873643    -0.6843652729    -1.1593209188
12
MgPt11_7 -1513.109294442 52046.963 85.43 Population MgPt11_9
  Mg    -0.6975568635    -1.4620006854    -0.9162797428
  Pt     1.9778620109    -1.2804556197    -0.4348885446
  Pt    -2.0888008790    -0.0701507365     0.8929678502
  Pt    -0.3289939932     2.7922880227     0.2259973783
  Pt    -1.7067017303     1.1887160841    -1.2824793836
  Pt     1.6095203368     1.1318520196     0.9242058706
  Pt     0.7918787864     0.8324833834    -1.5200653807
  Pt    -0.4995810669     1.3103186499     2.3939809939
  Pt    -3.1744885858    -0.9036971707    -1.2871978913
  Pt     3.2717357841     0.8564835102    -0.9896779632
  Pt     0.6368000877    -3.2790418067     0.3763203885
  Pt     0.2083261128    -1.1167956508     1.6171164247
12
MgPt11_5 -1513.103960309 52289.887 18.20 Population MgPt11_7
  Mg    -0.9183973903    -1.0825159547     1.3637141682
  Pt     1.0696121061     2.8952676243    -0.0047833619
  Pt    -3.0582651391     0.2546741433     1.1488123555
  Pt     1.6949050042     0.7723083994    -1.4438102491
  Pt    -0.4616506482    -3.2848767680     0.1182798518
  Pt    -2.7150656439    -0.1357829489    -1.3975513904
  Pt    -0.9463870259     1.6729891789     1.2360268405
  Pt     3.5501363824    -0.2085730355     0.0481268126
  Pt    -0.3919036757    -1.0739196056    -1.1133578421
  Pt     1.6569893565    -1.9075900461     0.2645911968
  Pt     1.3495897740     0.5227549830     1.0830160268
  Pt    -0.8295631001     1.5752640299    -1.3030644086
12
MgPt11_10 -1513.100159962 50865.353 20.28 Population MgPt11_4
  Mg    -0.0352478899    -0.2538956284    -1.5297373949
  Pt     1.8950232936     0.0579919764     0.4081453626
  Pt    -2.0904424261     1.1943135166    -2.2180951312
  Pt     0.0433790720    -1.7856783906     0.5742194584
  Pt     1.5534890588     2.5700196194     0.9841630113
  Pt     2.3118925267    -2.3703640021    -0.3932614092
  Pt     2.4715090217    -0.4483632037    -2.0527853022
  Pt    -2.9062764609    -0.4257607298    -0.5201577193
  Pt     0.7755766841     0.8810731963     2.6423903712
  Pt    -0.4525263715     2.1267113686    -0.4845509013
  Pt    -1.2071748257     0.3929867563     1.1627349182
  Pt    -2.3592016827    -1.9390344789     1.4269347364
12
MgPt11_9 -1513.098791199 52363.098 17.85 Population MgPt11_18n
  Mg    -1.3997147249    -0.3374727355    -1.7325463685
  Pt    -1.4060056929     2.4638387075     1.6799871941
  Pt    -0.3626708033     1.9340959717    -0.6068273960
  Pt     1.4726583483    -1.7224419744     1.6250396364
  Pt    -3.1123118863    -1.8261884541    -0.5575373524
  Pt     3.5568816353    -0.6714743892     0.5261777648
  Pt    -2.2694834302     0.2424666316     0.7163069121
  Pt     0.2224838462     0.5223479455     1.5933055345
  Pt    -0.7450802163    -1.9376024452     0.3145117557
  Pt     2.1192788947     1.3844511935     0.0592441900
  Pt     0.6187999588     0.7890228799    -2.7253473072
  Pt     1.3051640706    -0.8410433313    -0.8923145635
12
MgPt11_11 -1513.096600004 51514.357 19.63 Population MgPt11_1
  Mg    -0.2128286339    -0.8865328818     1.5925835774
  Pt    -0.6098145126    -0.5174039524    -1.1113221469
  Pt     3.2730792833     0.2069173195    -1.1717398791
  Pt     1.6474650438    -1.5712885229    -0.3495355823
  Pt     0.2957334918     1.4954892249     0.2838574855
  Pt     1.0486894124     1.1554829499    -2.1388567259
  Pt    -0.5137599128    -2.9718966447    -0.0956901928
  Pt    -1.6624625835     1.7659715651    -1.3330451854
  Pt    -2.4779671539    -1.2451264992     0.3407118612
  Pt     2.3472150913     0.4345261967     1.2125262760
  Pt    -3.6407022539     0.9314426057    -0.0668995101
  Pt     0.5053527281     1.2024186392     2.8374100223
12
MgPt11_12p -1513.096125456 52039.060 24.85 Population MgPt11_12
  Mg    -1.0960477673    -0.8270370051    -1.7489305822
  Pt     0.2148838114     1.4461692234     1.4170403787
  Pt     0.1210814923    -2.4041571773     0.2099146629
  Pt     2.5941004672     1.7323295901    -1.0350477483
  Pt    -1.3762419383    -0.4502823561     0.8473065853
  Pt     2.6401996307     0.6185941560     1.2612777786
  Pt     2.5704702056    -1.9248145369     0.7660446948
  Pt    -2.2763335781     1.8301399285     1.6181422019
  Pt     0.0502525147     1.7007211583    -1.1394847635
  Pt     1.3597344613    -0.4997643533    -0.9642835867
  Pt    -2.4356532849     1.2954076702    -0.9192820630
  Pt    -2.3664460147    -2.5173062977    -0.3126975587
