9
MgPt8_1 -1154.969432298 28820.615 28.12 Population MgPt8_22
  Mg    -1.0736259041    -0.0007556646     1.1987006029
  Pt    -1.5294707714     1.2804897074    -1.1816890886
  Pt     0.7177402540     0.0023834741    -1.5514201138
  Pt     3.0968447428     0.0021985537    -0.5389431260
  Pt    -1.5240162057    -1.2845625558    -1.1822642496
  Pt    -1.0511582521     2.5157931683     1.0095736259
  Pt     1.2045276287     1.3177835447     0.6184714799
  Pt     1.2058246256    -1.3153854227     0.6176110774
  Pt    -1.0466661179    -2.5179448051     1.0099597919
9
MgPt8_3 -1154.965358232 29039.022 33.83 Population MgPt8_1
  Mg    -0.4123654270    -1.5567086497    -0.8417276235
  Pt     2.0936214013    -1.7302114049    -1.0528214317
  Pt     0.9121516763     1.3994384638     1.5268354493
  Pt    -1.4017936108     0.9326119664    -0.7414009810
  Pt     0.1903008380     2.9400852450    -0.3691976377
  Pt    -2.8404111339    -1.1768482116    -0.2815483981
  Pt     1.1932760651     0.6836676064    -1.0174128566
  Pt    -1.0914513454    -0.3515517492     1.4559870234
  Pt     1.3566715363    -1.1404832663     1.3212864559
9
MgPt8_2 -1154.961573627 29361.219 38.26 Population MgPt8_2
  Mg    -0.1367582315    -1.3090474509     1.5859274278
  Pt    -1.2945445084    -0.9062507540    -0.7529318969
  Pt     0.1998578866    -2.9527484326    -0.2743929987
  Pt     0.8187539344     1.1220827285     1.2747699097
  Pt    -2.3500421268     1.3963779896    -1.0978840161
  Pt     1.6431545417    -0.8101637846    -0.3281157248
  Pt    -1.7744831159     0.7085731294     1.3158537793
  Pt     2.6782603259     1.5216949469    -0.5134354134
  Pt     0.2158012940     1.2294816276    -1.2097910670
9
MgPt8_4 -1154.952948549 28922.127 36.07 Population MgPt8_3
  Mg    -0.0003388498    -1.0076299098     1.4719575564
  Pt    -1.3754245900    -0.8352630418    -0.8025939701
  Pt    -0.0031453592    -2.9297803102    -0.2835818147
  Pt     2.1790468238     0.5492232299     1.2699990434
  Pt    -2.2830708736     1.5704398460    -1.0864928986
  Pt     2.2849021869     1.5686949360    -1.0869237862
  Pt    -2.1773170863     0.5528007858     1.2703579772
  Pt     0.0000824471     1.3679141051     0.0494269734
  Pt     1.3752653013    -0.8363996409    -0.8021490808
9
MgPt8_5 -1154.948995649 29271.442 21.47 Population MgPt8_4
  Mg    -0.0336571404    -0.9885045934    -1.2934055646
  Pt     0.0300324005     1.4437808402    -0.3129463215
  Pt    -2.1314846083    -1.4487063081     0.3301474459
  Pt     1.9844507690    -1.7513176652     0.0360042233
  Pt     2.0350910547     1.2346556932     1.2977767853
  Pt    -2.1284099866     1.0031543726     1.1776530003
  Pt    -2.1952428594     0.5218552518    -1.3836729541
  Pt     0.1196412183    -0.5189775339     1.3097792407
  Pt     2.3195791522     0.5040599427    -1.1613358552
9
MgPt8_6 -1154.948412585 29095.284 22.51 Population MgPt8_5
  Mg    -0.6870576607    -0.2334270221    -1.4016426473
  Pt    -0.0215422159     0.8520586859     1.3941175169
  Pt     2.3967856177    -0.0122209995     1.5526323272
  Pt     1.6775426738    -1.1041856343    -1.5269300779
  Pt     1.6444280064     1.2529769832    -0.5688088681
  Pt    -0.9706939362     2.2262647634    -0.6529261863
  Pt    -2.0191642781    -1.9388142260    -0.0277710559
  Pt     0.4375811697    -1.5547150218     0.6886635669
  Pt    -2.4578793767     0.5120624712     0.5426654245
9
MgPt8_7 -1154.948410454 28598.451 29.67 Population MgPt8_11
  Mg    -0.5454449190    -1.2940056609     0.0025554869
  Pt    -2.6015390039    -0.3839033835     1.2845164330
  Pt     1.8368362936    -2.2518120257     0.0018610803
  Pt     1.5427956176     2.2457774247    -0.0022499782
  Pt    -0.5355139593     1.1115305259     1.2754437913
  Pt     1.7192796754    -0.0754280804    -1.3196952646
  Pt     1.7199119202    -0.0730240968     1.3193793139
  Pt    -0.5363038802     1.1091106335    -1.2773306859
  Pt    -2.6000217444    -0.3882453369    -1.2844801766
9
MgPt8_8 -1154.940343457 28479.462 23.29 Population MgPt8_20
  Mg    -1.2354775450    -1.3665109278     0.3252218443
  Pt     1.3584524994    -0.8061857492     0.0281519514
  Pt     2.1876915851     1.1327125917     1.5543675344
  Pt     1.8561703826     1.6540945868    -0.9369734207
  Pt    -2.1153966700     0.6776047099    -1.1155756255
  Pt     0.5529134210    -3.1063320061     0.2112338245
  Pt    -2.5605146455     0.5143480922     1.4088970405
  Pt     0.1735841051     0.0965713775    -2.1167596948
  Pt    -0.2174231328     1.2036973250     0.6414365460
9
MgPt8_9p -1154.939186070 28135.494 11.02 Population MgPt8_6
  Mg    -0.5173011556    -1.3359221331     0.2939395816
  Pt     0.1418224191     1.3145946296     1.1033070386
  Pt     1.6512625636    -2.6590956715     0.4414414078
  Pt    -1.6367476258    -0.8320288095    -2.1293404891
  Pt    -1.8039925930     0.0679321891     2.2009557470
  Pt     2.0566604360     2.2462980222    -0.3727602999
  Pt     2.0188300702    -0.2305471896     0.1745098931
  Pt     0.2723188531     0.7425919969    -1.5068295767
  Pt    -2.1828529675     0.6861769658    -0.2052233025
9
MgPt8_9n -1154.939166346 28141.574 12.45 Population MgPt8_6
  Mg    -0.5236794498    -1.3286213292    -0.3378082244
  Pt     0.2880771091     0.6959225531     1.5265727013
  Pt     1.6462287152    -2.6470933262    -0.5099405617
  Pt    -1.8222747195     0.1375180416    -2.1847518824
  Pt    -1.6139033923    -0.9036980158     2.1065176909
  Pt     2.0604812704     2.2345962385     0.4237900184
  Pt     2.0152386096    -0.2232660360    -0.2054111610
  Pt     0.1302820972     1.3520995915    -1.0619961928
  Pt    -2.1804502399     0.6825422824     0.2430276116
9
MgPt8_10 -1154.936929598 28665.846 23.78 Population MgPt8_14
  Mg    -0.2010811408    -0.3409247957    -1.4769570637
  Pt    -2.8747673757    -0.5524315995     0.8561389374
  Pt     1.4103651144     2.2450305933     0.5680781727
  Pt    -0.4560618635    -1.4189444759     0.8744593302
  Pt     1.6850419526    -0.1392962477     1.4783283956
  Pt    -2.5014825210     0.7293616990    -1.3254027150
  Pt    -0.8879165617     1.1150902687     0.6431463854
  Pt     1.6020626237    -2.0579867589    -0.6037080920
  Pt     2.2238397721     0.4201013166    -1.0140833505
9
MgPt8_11 -1154.931255575 28284.940 9.53 Population MgPt8_10
  Mg    -0.3500577037    -0.1951535683     1.5969497141
  Pt     2.8683268438    -0.5569359421    -1.0295712493
  Pt     0.4344657937    -1.2898848057    -0.7463308907
  Pt     2.0701559219    -1.0444232365     1.3253281481
  Pt    -1.3053679861     0.8742312132    -0.6488587041
  Pt    -2.7712312749    -0.4976059913     0.9844041587
  Pt    -0.2206644388     3.1001672542    -0.3088467596
  Pt     1.2965399985     1.1951518863     0.0182233966
  Pt    -2.0221671544    -1.5855468098    -1.1912978137
9
MgPt8_12 -1154.930540756 28862.429 24.73 Population MgPt8_16
  Mg    -1.1206032635    -0.3473271813     1.3427407775
  Pt     0.2622646510     1.2342357019    -0.4637178998
  Pt     1.9434716166    -0.7299810452    -1.1539389637
  Pt     2.7744735039     1.5900414238    -0.4166149630
  Pt    -0.7542934131    -0.9948125385    -1.2757501214
  Pt    -1.9926954042     1.9178598220     0.4169067159
  Pt     0.3497366198    -2.3229433581     0.6659065047
  Pt     1.5791626131    -0.1186591135     1.3152505557
  Pt    -3.0415169235    -0.2284137110    -0.4307826057
9
MgPt8_13 -1154.928863566 28391.416 19.29 Population MgPt8_15
  Mg    -0.3881472595    -1.4915521030    -0.0037773631
  Pt     0.2767917260     0.8698685257    -1.2489403033
  Pt    -2.8604402865    -1.9545107540    -0.1076984373
  Pt     1.8412718170    -1.0849504705     1.3932468253
  Pt     2.5426280290     0.9409864287    -0.0430450441
  Pt    -1.1489591368     2.6963952137    -0.0957908440
  Pt    -2.2208264461     0.4064883135     0.0732894891
  Pt     0.0440707095     0.8463666986     1.2989260328
  Pt     1.9136108474    -1.2290918527    -1.2662103555
9
MgPt8_16 -1154.925543452 28185.176 18.06 Population MgPt8_17
  Mg    -1.2194448712    -0.0125166477    -1.1480821492
  Pt    -2.2916885047     0.0209023873     1.3828626324
  Pt    -0.0583375578     1.2947608539     0.9026966302
  Pt     2.4949625551    -1.2793152578     0.7568617294
  Pt    -0.0600327479    -1.2681184653     0.9394275525
  Pt     1.1290983627    -1.3065480111    -1.4040063439
  Pt     1.1341197647     1.2644374704    -1.4393062566
  Pt    -3.6261927800    -0.0106473029    -0.7133231796
  Pt     2.4975157791     1.2970449731     0.7228693849
9
MgPt8_15 -1154.922156734 27868.723 24.53 Population MgPt8_18
  Mg    -0.1000244639    -1.9218752924     0.2425986436
  Pt     0.8657002847     2.2651218758     0.7673291691
  Pt     1.5391097262     1.8098837268    -1.6513653743
  Pt    -0.5220998990     0.5727432147    -0.7737871975
  Pt     2.2399804927    -2.4022555125     0.9215832609
  Pt    -1.6112059799     1.8139165419     1.2027379369
  Pt    -1.8867568418    -1.4253030954    -1.5882941988
  Pt    -2.3598556714    -0.5826877687     0.7770097994
  Pt     1.8351523524    -0.1295436902     0.1021879606
9
MgPt8_14 -1154.921499158 27881.353 26.28 Population MgPt8_9
  Mg    -0.9905690917    -1.3718301802     0.2630622390
  Pt    -2.6525054381     0.4877848778     1.0825812086
  Pt     0.7514119354    -3.1469056063     0.3799718705
  Pt     2.0092758266     1.1899351133     1.2978104749
  Pt    -2.4868482544     0.0009452007    -1.4071302870
  Pt     2.3493466988     1.3827025463    -1.2177827063
  Pt     1.5616071913    -0.9093508836    -0.1922357010
  Pt    -0.1113351934     0.7868872947    -1.2801816025
  Pt    -0.4303836745     1.5798316373     1.0739045038
9
MgPt8_17 -1154.899471507 27082.866 18.15 Population MgPt8_19
  Mg    -0.7677937623    -1.2547200149     0.0602215436
  Pt     2.4166106864     0.7484781294     1.4074213892
  Pt     1.0694177259    -3.0095460115    -0.0601324721
  Pt    -3.2311761628    -0.6842283034    -0.2902173006
  Pt    -2.0150085675     1.3465232664    -1.0930326350
  Pt     2.4721806604     1.6922959733    -0.9906331508
  Pt     1.7826557318    -0.7302662786    -0.6698517658
  Pt    -1.9479345622     0.7082063929     1.4700568410
  Pt     0.2210482502     1.1832568464     0.1661675506
