10
MgPt9_1 -1274.376798601 36151.564 39.99 Population MgPt9_2
  Mg    -0.0005671471    -0.0064422592    -1.9695452754
  Pt     0.0010484410     0.0066244470     1.9571583100
  Pt     0.0015254678    -2.5319066972    -1.8029601716
  Pt     1.3756851649    -1.3116737380    -0.0109032332
  Pt    -2.5478396341     0.0037949452     1.8473610219
  Pt    -1.3754600982     1.3117944898    -0.0188684809
  Pt     1.3729854113     1.3142023788    -0.0196482875
  Pt     2.5492120739     0.0086358276     1.8449844590
  Pt    -0.0035539790     2.5194693607    -1.8176638434
  Pt    -1.3730357005    -1.3144987546    -0.0099144989
10
MgPt9_13 -1274.361259133 35897.879 33.88 Population MgPt9_14
  Mg    -0.1399555186    -0.3647165526     1.7727069604
  Pt     0.3104950355     0.1665524339    -1.8921276788
  Pt    -1.9386111776     0.5311666747    -0.0475190497
  Pt     2.1371705359    -0.2374693323     0.0510215245
  Pt    -2.4191265529    -1.4784745655     1.4654844338
  Pt     0.3270295352     1.8360821856     0.2305190492
  Pt     1.9130814287     1.1004652248     2.1595502003
  Pt    -1.1598739623     2.2570157638    -1.8000089730
  Pt     1.6083857315    -2.0562119472    -1.5859086132
  Pt    -0.6385950555    -1.7544098851    -0.3537178535
10
MgPt9_2 -1274.341776268 35827.407 23.30 Population MgPt9_7
  Mg    -0.7546890371    -0.0495225071     1.2472721859
  Pt     2.6138310996     0.0461898938    -1.3794271620
  Pt     0.0766295543     0.6173885599    -1.7126091826
  Pt    -2.2164300870     1.2280313655    -0.6947968922
  Pt     1.1958072071     1.5835793850     0.3626868003
  Pt    -1.0967011753    -2.5806570667     1.1254997156
  Pt    -1.0388068565     2.4746364152     1.2327286390
  Pt     2.5102113522    -0.4864210709     1.1306089714
  Pt     0.6697217019    -1.4969928895    -0.3750367434
  Pt    -1.9595737591    -1.3362320852    -0.9369263319
10
MgPt9_4n -1274.326011359 35986.741 19.93 Population MgPt9_6
  Mg    -2.3412321619    -0.3116822715     0.8596096969
  Pt    -2.9286771940     0.1605629670    -1.5397893020
  Pt     0.1465578564     0.3476440307     1.6352122414
  Pt    -0.6575577141    -2.1644536626     1.4577124569
  Pt     1.7702472216     1.0437505984    -0.7290911425
  Pt     3.3987258241    -0.7299333561    -1.3042186714
  Pt    -0.9391547472     1.4463146155    -0.4911007547
  Pt    -0.7487047268    -1.1301544347    -1.0109524557
  Pt     0.7836783144     2.7298030078     0.9254534854
  Pt     1.5161173275    -1.3918514943     0.1971644456
10
MgPt9_4p -1274.325998105 35986.556 19.55 Population MgPt9_6
  Mg    -2.3421158801    -0.3169035234     0.8634236391
  Pt    -2.9355436367     0.1663301754    -1.5306225237
  Pt     0.1466231711     0.3397691429     1.6362638734
  Pt    -0.6559626536    -2.1721181920     1.4439692613
  Pt     1.7625139729     1.0433393101    -0.7398653294
  Pt     3.4118395581    -0.7205674209    -1.2929747603
  Pt    -0.9446001455     1.4503693208    -0.4815682866
  Pt    -0.7505103614    -1.1221672800    -1.0178058309
  Pt     0.7914032484     2.7214142658     0.9313881958
  Pt     1.5163527269    -1.3894657986     0.1877917613
10
MgPt9_5 -1274.319533361 35886.843 16.79 Population MgPt9_18
  Mg    -0.3939885483    -1.5095144389     1.5989397831
  Pt    -1.8003846648    -0.8471502587    -0.4694408735
  Pt    -3.0359641832     1.4108339546    -0.2881383744
  Pt     1.3636065851     0.3760660633     2.0241266557
  Pt    -0.6471508166     1.3192959868    -1.2408780837
  Pt     1.6558274354     0.7643990085    -2.1958751553
  Pt     1.4179230488    -0.9334706138    -0.2928673111
  Pt     2.6835324111     1.3222714073     0.0440302749
  Pt    -0.1939349343    -2.8985593940    -0.4586793186
  Pt    -1.0494663331     0.9958282849     1.2787824028
10
MgPt9_7 -1274.316012975 35650.229 22.96 Population MgPt9_8
  Mg    -0.8900486154    -1.5094816112    -0.5142214540
  Pt    -2.8558785638    -0.0374892137    -1.2301332683
  Pt     1.3474861154    -0.5306897687    -1.4420990325
  Pt     3.3817533175    -1.2203377474    -0.0344981871
  Pt    -1.0772420042     0.5388384155     1.2855653070
  Pt    -2.8690706871    -1.2741068123     1.0321430057
  Pt     0.2446438140     2.6721865392     0.6840189182
  Pt     2.2603315541     1.1335991749     0.2962819606
  Pt    -0.6227591502     1.1791454435    -1.2143811221
  Pt     1.0807842197    -0.9516644199     1.1373238726
10
MgPt9_6n -1274.315995444 35661.125 23.11 Population MgPt9_12
  Mg    -0.9213332217    -1.4130583223     0.0123124761
  Pt     2.1913382256     1.2273274940    -0.0112106286
  Pt     0.2387766165     0.7832509072     1.6118784392
  Pt     0.2263924998     0.7612421342    -1.6152899664
  Pt    -3.3402557286    -0.7229900018     0.0081450219
  Pt     0.6169395037    -1.6651186500     2.1763192585
  Pt     0.5980558179    -1.6914131269    -2.1648140049
  Pt    -1.7122324849     1.1220709094     0.0031357323
  Pt     1.8460560466    -1.3295537731    -0.0019075987
  Pt     0.2562627249     2.9282424293    -0.0185687294
10
MgPt9_8 -1274.313521653 36229.720 19.42 Population MgPt9_15
  Mg    -1.6051199487    -0.8533501673    -1.0696976796
  Pt    -0.0674889574     1.3669359850    -0.5959241686
  Pt     1.6433183043     1.3196817057     1.8502200888
  Pt    -0.3476123834    -0.3723436950     1.3013782750
  Pt     2.5540916631     1.4211582521    -0.5586448133
  Pt    -2.9008732944    -0.2283843241     1.0642096596
  Pt     0.0735903697    -2.5407561863    -0.1277084181
  Pt     1.0592317183    -0.6807683798    -1.6803759255
  Pt    -2.6061556639     1.4674264807    -0.7940239377
  Pt     2.1970181923    -0.8995996710     0.6105669193
10
MgPt9_10 -1274.308903002 34934.371 15.60 Population MgPt9_10
  Mg    -0.7603475102    -0.0097015771     1.2223653440
  Pt    -2.2763390341    -1.4478045454    -0.5867355574
  Pt     1.6229755029    -1.4098035956     1.2470380297
  Pt     1.5515933233     1.1039924677     1.6491723011
  Pt     2.5236137133     1.4835638623    -0.7089310410
  Pt    -3.3052172501     0.2079692902     1.1042104234
  Pt     0.2634161869    -1.2641266903    -0.9548101893
  Pt     2.8235996424    -1.0053634191    -0.9926120490
  Pt    -2.4680014946     1.0688648370    -1.1098407016
  Pt     0.0247069203     1.2724093703    -0.8698565598
10
MgPt9_9 -1274.302988201 35900.340 17.24 Population MgPt9_9
  Mg    -1.5130788124    -1.7270614642    -0.4999309655
  Pt    -0.8181731034     0.0101389138     1.2840137508
  Pt     1.8522408523     0.8418166485    -1.3088816467
  Pt    -0.6919141350     0.6140746495    -1.2135404563
  Pt     3.0160298676     1.9322247244     0.6055426935
  Pt     0.9502784806    -1.5894710955    -1.3793711598
  Pt    -3.1666909154     0.1902887107    -0.1295221985
  Pt    -1.7768672930     2.2486813604     0.4553785739
  Pt     0.4291459010    -2.3924939029     1.0512745851
  Pt     1.7190291576    -0.1281985447     1.1350368236
10
MgPt9_11 -1274.293818293 33958.572 15.58 Population MgPt9_11
  Mg    -0.6931437512    -1.2985130346     1.1124687677
  Pt    -2.1011758214     0.9036893532     0.4401412182
  Pt    -2.0279995620     0.0677891908     2.7528625685
  Pt    -1.6201763527     1.9339778548    -1.8374937990
  Pt     2.7021298147     1.9900698432     0.0617101532
  Pt    -0.3263453509    -2.9398056395    -0.8367747889
  Pt     0.4203062358     1.3229254290    -0.4268394169
  Pt     3.4071027925    -0.3021563130     0.6878772713
  Pt     1.3705247797    -1.0913726764    -0.4657790673
  Pt    -1.1312227845    -0.5866040075    -1.4881729067
10
MgPt9_12 -1274.289096781 35749.756 19.38 Population MgPt9_13
  Mg    -1.8913945915    -1.5604319319     0.5243660473
  Pt     2.6361688484    -0.4571474604    -1.5474382085
  Pt    -1.8790556310     0.9535048073    -0.4037032214
  Pt    -3.9052589666    -0.4376123741    -0.4080802891
  Pt    -0.2070728561     2.6472503233     0.5681544549
  Pt     1.9385001563     1.7611552765    -0.4852565493
  Pt     0.5169256642    -2.2931358258     0.6716218623
  Pt     0.1136635020    -0.4887619921    -1.2095909667
  Pt     2.5901319914    -0.3117487781     1.0101553884
  Pt     0.0873918829     0.1869279552     1.2797714821
