3
MgPt2_1 -438.658546345 1672.599 159.19 Population MgPt2_3
  Mg    -0.0000059828    -1.3314760001     0.0000000000
  Pt    -1.2824345086     0.6657400308     0.0000000000
  Pt     1.2824404915     0.6657359693     0.0000000000
3
MgPt2_2 -438.603889412 1086.808 32.65 Population MgPt2_4
  Mg    -0.0000010000    -0.0002766667     0.0000000000
  Pt    -2.3926730000     0.0001383334     0.0000000000
  Pt     2.3926740000     0.0001383333     0.0000000000
